14

Cu -0.25199890000000025 -0.23130225000000237 -2.522899650000003
Cu -2.4787979 0.20490074999999663 -1.3598976500000042
Cu -2.808898899999999 1.1116009499999997 1.1109008499999966
Zr -1.7672995999999976 -2.178800550000002 0.48450084999999987
Cu 0.6588019999999979 -2.0520992500000013 -1.0467987500000042
Zr 2.808898899999999 -1.8136004499999991 0.9177016500000015
Zr 2.651802099999994 0.15209774999999937 -2.5680999500000006
Cu 1.933204700000001 1.1953983500000014 -0.5444984500000025
Zr 0.07530209999999826 2.178800550000002 -2.1327971499999983
Cu -0.33789830000000265 2.0865993499999966 1.1176032499999984
Cu -0.9153976000000021 -0.21980095000000333 2.094901949999997
Cu 0.6057013999999974 -2.072000550000002 2.2170028499999965
Zr 1.4973030999999999 1.1612987499999967 2.5680999500000006
Cu -0.004699699999999751 -0.06450084999999817 -0.102897549999998
