14

Cu 0.15753510000000048 -2.7276000499999995 -0.9533977999999976
Zr -2.8114352 1.184299450000001 -0.09889789999999721
Cu -2.4942545999999997 -1.6305008499999971 0.20200160000000267
Cu -1.2709650999999997 0.9384002500000008 -2.308099800000001
Zr 1.4601349999999993 0.13660044999999954 -2.562700300000003
Cu -0.8785644000000001 -1.0865994499999978 -1.4597988000000015
Zr 0.2571349000000005 2.7276000499999995 -0.7325000000000017
Cu 2.3400350000000003 -1.6191998499999976 -0.5538006000000024
Zr 2.8114352 1.2861995500000027 0.09689900000000051
Zr 0.5904355999999993 -2.468500249999998 1.680501900000003
Zr -1.0725645999999998 -0.17650034999999775 2.562700300000003
Cu 1.8495355 -0.2436009499999976 1.9660014999999973
Cu 0.8958353999999993 2.1947993500000003 1.5812014999999988
Cu 0.08583499999999944 0.2910003500000009 0.20260040000000146
