12

Zr -2.3236999500000017 -0.8606948999999986 1.491715119999995
Zr 0.29969794999999877 -0.03419499999999687 2.473595319999994
Cu -0.2897987499999992 -2.561698899999996 1.6567351199999933
Cu 2.3236999500000017 0.06560519999999315 -0.6367844800000029
Cu 2.312198750000004 -1.4391021999999936 0.9884054199999923
Zr 1.1018982500000014 2.561698899999996 0.22574541999999553
Cu -2.2929992499999976 -2.224197399999994 -1.2337746800000033
Zr -1.8703002499999961 0.4519042999999954 -2.473595320000001
Zr 0.329898950000004 -1.9034958000000017 -2.3839958200000098
Cu -1.664001449999997 1.5298995999999931 0.32199551999999443
Zr 0.6240997500000027 1.5716019000000045 -2.187096420000003
Cu -0.03279875000000132 -0.43740080000000603 0.10199521999999916
