15

Cu -0.9714985000000027 1.9273550200000003 -1.3739498
Cu 2.280599600000002 3.0123421800000045 -0.2687300000000006
Zr 0.07259940000000142 2.519662480000001 1.20737
Cu -1.562200599999997 -2.5122430799999975 0.2100098000000008
Cu 0.07560149999999766 -3.0123421799999974 -1.9392497999999998
Zr 1.493398599999999 -2.255040880000003 -0.18832950000000093
Cu -1.8948994 0.009355820000003234 -0.04394030000000004
Zr -1.9326992000000018 -1.4455392799999984 -2.1703799000000004
Cu 0.37449829999999906 -0.5933434799999944 -2.5748398999999997
Cu 1.4593982000000025 0.9702552200000056 -1.4378799000000004
Cu -0.9320011000000008 -1.0449425800000043 2.0175402
Cu 1.2380008000000018 -0.5382440800000055 2.5748398999999997
Zr -2.4259014000000008 1.1193563200000014 2.1289398000000004
Cu 2.4259014000000008 0.31846071999999737 0.8732797999999997
Cu 0.1438006999999999 0.02656001999999802 -0.000670199999999177
