11

Zr 2.5594481999999985 -0.3402977000000007 -2.11450475
Cu -0.32355120000000426 -2.250099200000001 -0.5169948499999997
Cu -0.7515488000000019 -0.33069989999999905 -2.1332850500000005
Cu -1.7843513999999985 1.6700019000000026 -1.1365346499999998
Cu 0.8794516999999971 1.731498700000003 -1.6929850499999999
Zr -2.6268500999999986 -0.08599859999999637 0.9308553500000007
Cu 2.2795485999999983 -1.6330985999999967 0.7191253499999997
Zr 0.09275050000000107 -1.4651984999999996 2.1332850500000005
Cu 2.6268500999999986 1.0732002000000023 0.6246047500000005
Zr 0.5232505999999972 2.250099200000001 1.9554849499999998
Cu 0.38824840000000194 0.047599800000000414 -0.09974525000000067
