14

Cu 0.18609905000000104 2.467299500000001 -0.538898500000002
Zr -0.04240124999999928 -1.4283990999999983 -2.1847992000000005
Zr -2.29020025 -0.7981004999999985 0.199802499999997
Cu -0.5009011499999989 -2.467299500000001 0.7835997999999975
Cu -1.2741002499999983 -0.20989890000000067 2.5453987
Cu 1.5192995500000013 -1.2664995000000001 1.6567992999999959
Zr 2.49849985 1.547900199999999 0.780601499999996
Cu 2.5406999499999987 -0.028698900000000194 -1.2772980000000018
Cu -1.6467008500000002 1.0094995999999998 -1.793498900000003
Cu 0.3728991500000003 0.9054994999999995 -3.063598599999999
Cu -2.5406999499999987 2.0726004000000007 0.7252006000000009
Zr -0.4100999500000011 2.462399500000002 2.0387001
Cu 1.4292001500000016 0.8121004000000003 3.063598599999999
Cu -0.03910154999999982 -0.05230039999999825 -0.032299000000001854
