16

Cu -2.5450298500000006 -1.2763003999999967 -0.7725010500000007
Cu -2.36336965 0.4675007000000022 -2.0662002499999996
Zr -0.4340598500000006 -3.1681995 -1.0048999500000004
Cu -0.1908695500000004 -0.7837008999999995 -2.3716011499999983
Zr 2.5450298500000006 -1.3845005000000015 -0.7404995500000009
Zr -1.9372894499999997 2.7243977000000044 -0.5484009499999996
Zr 1.1194003499999994 1.5035992000000036 -2.923900550000001
Cu 0.5364201499999997 3.1681995 -0.3548012499999995
Cu 2.3914301499999997 1.7138996000000049 0.05970005000000178
Cu -2.3323595500000005 0.2684002000000021 1.244899649999999
Zr -2.0109698500000004 -2.2367992 1.604200350000001
Cu 1.0664905499999993 -2.5151996999999966 1.5391997499999999
Cu -0.040499450000000436 -0.5309008999999989 2.923900550000001
Cu 1.9493000499999997 0.3313006999999999 2.367000550000002
Cu -0.9488198500000005 1.8306980000000053 1.7924995500000005
Zr 0.00015044999999958009 0.17959790000000453 0.17090025000000075
