11

Zr -2.2833495 -2.3628006 -0.1438006999999999
Zr -1.088849399999999 -0.781799300000003 -2.6499004
Zr -1.655350199999999 -0.08029930000000007 2.6499004
Cu -2.423449999999999 0.549499499999996 -0.5217990999999955
Zr 0.3276506000000001 -2.255302400000005 1.613699000000004
Cu 0.8514504000000009 -1.8744011 -1.0641002999999998
Zr 2.212949300000002 0.4222984999999966 -1.3055018999999959
Zr -0.5795501999999999 2.3628006 1.1321010999999999
Cu -0.01905000000000001 2.2044982999999974 -1.4839000999999996
Cu 2.423449999999999 -0.25880049999999954 1.462598800000002
Cu -0.2145495000000004 0.03199769999999802 -0.11739920000000126
