13

Cu -2.348999900000001 0.7702503500000013 -1.7270508499999977
Cu -0.7732991999999985 -1.189649549999995 -2.2284508500000015
Cu 1.0077009000000015 0.42625235000000217 -2.4271506500000015
Zr 0.6643992000000001 2.634649249999999 -1.3295517500000003
Zr -2.7069998 -1.9571476499999996 -0.6507530499999987
Zr -1.9653997000000007 0.41985125000000423 1.2531470499999955
Cu 0.9926005 -2.442647949999998 -0.3234520500000002
Zr 0.8511992999999993 -0.27174944999999795 2.4271506500000015
Zr 2.7069998 -0.6541500499999948 -0.20215234999999865
Cu -0.735999099999999 -2.634649249999999 1.644245049999995
Cu -1.0982998999999989 2.6165523500000027 0.6472510499999942
Cu 1.5105008999999985 1.6429500499999996 0.9704474499999947
Cu -0.11029910000000065 -0.1640491500000003 -0.27295304999999814
