14

Zr -2.1084499 -1.1199016499999992 -1.2876492000000042
Zr 0.13414949999999592 -1.6830997500000002 -3.205949799999999
Cu -1.2538508999999998 -2.253900550000001 1.0629519999999957
Zr 3.221349700000001 -0.31049914999999473 -0.7210482999999996
Zr -3.221349700000001 0.7260990500000055 0.6865482000000043
Cu -1.0782490000000031 0.8827991500000003 -2.9324512000000027
Zr 0.9440478999999975 -2.5254993500000005 -0.8156490000000005
Cu 1.5815486999999955 1.2808017500000055 -1.5902500000000046
Zr -0.6672497000000028 2.5254993500000005 0.2306537999999989
Zr 1.9398479999999942 1.2484989500000019 1.5831469999999968
Cu -0.9594516999999989 0.8485011500000006 2.110353500000002
Zr 0.44845009999999874 -1.3848018499999988 3.205949799999999
Cu 2.026349999999997 -2.0562992499999986 1.506647099999995
Cu -0.11245150000000237 -0.18800165000000035 0.08445170000000246
