13

Cu -0.0021652999999988154 -0.44498015000000013 -2.6248492999999975
Cu -1.6052450999999994 -1.9128804500000003 0.990648199999999
Cu 0.8887343000000003 -1.3841604500000004 1.7283495999999978
Zr 0.3125948999999997 -2.9328198500000005 -0.9624501000000016
Cu -2.3241552 0.1009202500000006 -1.491449399999997
Cu -2.4356351 0.3597197499999991 0.7181491000000015
Cu -1.1048655999999992 2.8642201500000004 1.5994510999999996
Cu -0.429885399999999 0.6356196499999998 2.6248492999999975
Cu 2.4356351 -0.27197975000000074 -0.6703510000000001
Cu 2.0732350000000013 1.7962203499999996 -1.9614506000000027
Zr -0.5540546999999991 2.9328198500000005 -0.9859523999999986
Zr 2.026835000000001 1.3565201500000006 1.4960498999999992
Zr 0.14850470000000104 0.3144202500000004 -0.08745010000000164
