11

Cu -1.039497449999999 0.0053482000000038 -2.213800450000001
Cu -1.4126969499999973 -2.651451099999999 -0.4001980500000002
Zr -0.5712967500000019 2.651451099999999 -0.688497550000001
Cu -2.318100049999998 1.1921501000000028 0.27319905000000233
Zr 1.5432051499999915 0.7896500000000053 -2.388898849999997
Zr 1.5628051500000026 -1.6438521999999942 -1.1417979499999973
Cu 2.318100049999998 1.492748300000006 -0.11630054999999828
Cu 1.062499950000003 -2.0613516999999995 1.3948001500000018
Zr 0.5521010500000045 1.9039497000000019 2.0286006500000013
Cu -1.900299149999995 0.38684840000000165 2.388898849999997
Cu -0.08969885000000488 0.19075010000000603 -0.10420034999999928
