14

Cu -0.8047008499999997 0.27935409999999194 -2.487697600000004
Zr 1.9013996499999983 0.5824546999999995 -2.120597800000006
Cu 0.6556987500000027 -1.8283500000000004 -2.6302986000000033
Cu -0.7133007499999984 1.779155700000004 -0.5835989999999995
Zr -1.6748981500000006 -2.3620491000000072 -1.8356971000000044
Cu -0.5459003500000001 -2.5213509000000016 1.1419029999999992
Cu 1.3985996499999978 -2.277744299999995 -0.2079963000000049
Zr -2.6932010500000025 -0.4923438999999945 0.5956001999999927
Cu -1.0365009500000006 2.019351999999998 1.7736015999999921
Cu -1.0058994499999976 -0.6188468999999941 2.6302986000000033
Cu 2.6932010500000025 -0.2862511000000012 0.7533988999999934
Zr 1.8944988500000015 2.5213509000000016 1.5293999999999954
Cu 1.3666019499999997 -1.7170447999999965 2.0407981999999976
Cu 0.21190075000000164 -0.3226508999999993 0.24029930000000377
