13

Zr -1.43564795 2.937908180000001 0.4246540000000003
Zr 0.9397487500000032 2.19381808 -2.0014476000000023
Cu -1.5724505500000028 0.7121882799999995 -2.0493488000000006
Cu 1.6550502499999986 -1.1080117200000004 1.0430546000000014
Zr 1.9857502499999988 -0.8406820200000027 -1.7191447999999987
Cu -2.8126506499999984 0.4483681799999957 -0.23684500000000597
Cu 0.21434975000000023 1.2106981800000014 1.7483540000000026
Zr 2.8126506499999984 0.9977483799999973 0.9062520000000056
Cu 0.16594885000000303 -2.8601035800000076 -1.0409449999999971
Cu -1.8611507499999966 -2.5657081800000086 0.11475560000000584
Cu -0.09374804999999853 -2.937908180000001 1.5378512999999963
Cu -1.8819484499999994 -0.33177182000000016 2.0493488000000006
Cu -0.09815024999999977 0.015098080000001346 -0.33164789999999655
