17

Zr -0.6200027000000006 -2.301197099999996 -2.219802900000005
Zr -2.9646987999999936 -1.473903699999994 0.41770180000000323
Cu -0.6644974000000019 -2.368801099999999 1.7779998000000035
Zr 2.6158980999999955 -1.972904199999988 1.6118010999999939
Cu 0.6753997999999939 -2.8527030999999994 -0.0444030999999967
Cu -0.7276992999999976 2.8527030999999994 -0.3616028
Cu -1.0658035000000012 0.3015023000000099 -2.931503300000003
Cu 1.5415954999999997 -0.0635032999999936 -2.5613022
Cu -2.628402699999995 0.8288002000000034 -0.9502030000000019
Cu 1.1410979999999995 2.618099200000003 0.9029007000000036
Zr 1.1716002999999944 2.5102958000000086 -1.958496100000005
Cu -2.5668030000000073 1.3650015999999994 1.3802031999999969
Cu 2.9646987999999936 0.91409680000001 -0.09089670000000183
Cu 2.349800099999996 -1.305500099999989 -0.7028961000000038
Cu 1.7715988000000067 0.26070030000001054 2.018203700000001
Cu -0.8908004999999974 -0.08980179999998938 2.931503300000003
Zr 0.07039639999999281 -0.1545982999999893 -0.10579690000000141
