14

Cu 0.42539875000000293 -3.0813994000000005 -1.5800137800000016
Zr -0.4796000499999984 -1.6090999000000004 2.859676119999996
Zr -2.8464002499999985 -1.3944001000000004 0.07151621999999946
Cu -2.092602750000001 1.1043010000000013 0.8735463200000027
Zr -0.4678011500000032 3.0813994000000005 0.8146164200000001
Cu -0.27050114999999764 -2.2766994999999994 0.38103602000000336
Zr 2.5973004500000023 2.2814993999999995 0.09409641999999963
Cu 0.3678999499999982 1.0937000000000001 1.8057863200000028
Zr 2.8464002499999985 -0.39489979999999925 1.1126262200000028
Zr -1.8795023499999992 1.2893996000000012 -1.879978020000003
Cu -0.3300028500000032 -0.6611999999999991 -2.859676119999996
Cu 1.6151990499999975 -1.2942996000000004 -1.2694738200000089
Cu 1.1831998499999976 1.5456003999999997 -1.9013784200000075
Cu 0.13349814999999765 0.20810079999999864 -0.2716839799999988
