14

Zr -1.0643024500000031 -2.350999850000001 -2.1391992500000008
Cu 0.47669794999999837 -2.7143001499999997 -0.08279895000000081
Zr 2.0312976500000026 -1.048501949999995 -1.7263002500000013
Cu 2.1561984500000015 -1.4019985499999947 1.074999850000001
Zr -1.39100075 0.2174014500000041 -2.8683996500000006
Cu -1.35230065 2.157999050000001 -0.5954998499999995
Cu -2.739999749999999 0.05430025000000427 -0.2306985499999996
Zr 2.739999749999999 1.0405978500000046 0.5043001499999988
Cu 0.885698350000002 1.8140010500000017 -1.4799985500000012
Zr -1.4461994499999982 -1.6012020499999977 1.0896997500000012
Zr 0.5925006500000016 -0.07919874999999621 2.8683996500000006
Zr 0.5102977499999959 2.7143001499999997 0.9182996500000016
Cu -1.7012996499999993 1.2473010500000044 1.8832006499999991
Cu 0.09379765000000262 0.218999850000003 -0.07829955000000055
