12

Zr -2.3514519000000007 0.833199500000001 -1.0454998
Zr 2.3431511 0.8345003000000002 -1.6027003000000004
Cu 0.5885505999999907 -1.3331993999999998 -1.7730999
Zr -0.22624590000000921 2.6579999999999995 -0.20610050000000157
Cu -0.18314740000000995 0.6015998000000007 -2.819900500000001
Zr 0.2432517999999959 -2.6579999999999995 0.9734000999999992
Cu -2.067050899999998 -1.3021002 0.2742995999999991
Cu -1.6405524999999983 0.9194994000000012 1.5924997999999988
Cu 2.3514519000000007 -0.7722005999999997 0.6255997999999998
Zr 0.3031501999999904 -0.5264006000000006 2.819900500000001
Zr 1.7109489999999994 1.8639002000000016 1.9727993000000001
Cu -0.014148700000006897 0.2585001000000009 0.2751998999999987
