16

Zr 0.8149014000000001 2.4920501 -2.6028995500000036
Zr -1.8033009 -0.45475009999999827 2.9228992500000004
Cu -1.483201999999995 -1.624450699999997 -0.3467006500000025
Cu 0.2475985999999999 -2.912250499999999 0.5917987499999953
Zr 1.2300014000000026 -2.0651511999999954 -1.8852977499999994
Cu 2.322099699999999 0.23154830000000004 -2.9228992500000004
Zr 3.2242984999999997 -1.1424483999999993 0.29329875000000527
Zr -3.2242984999999997 0.5603485000000035 0.6452045500000025
Cu -1.820199899999995 0.8741492999999991 -1.9579982500000028
Cu 2.422700899999999 1.980850199999999 -0.8052959500000014
Zr -1.158800099999997 2.7798500000000033 -0.09349634999999523
Cu 0.9710980000000013 2.912250499999999 1.0823993500000029
Zr 1.2264003999999993 -1.1880492999999959 2.723802550000002
Cu 0.5865001999999997 1.2281495000000007 2.885202449999994
Cu 2.9014988000000024 0.9425506000000041 1.7931003500000031
Zr 0.39100070000000287 0.23685070000000508 0.12870214999999519
