11

Zr 0.25147530000000096 0.8190517500000034 -2.3782501000000025
Cu 2.4992751999999996 -0.7049502499999996 -0.550647699999999
Cu -1.2834252999999993 -2.5002498499999994 1.5944519000000028
Zr -2.3334951000000004 0.1649493500000041 -0.750351000000002
Zr -2.4992751999999996 -0.27165034999999804 2.3782501000000025
Zr -0.010324499999999404 -2.3934497499999985 -0.9586486999999977
Cu 1.8649750000000012 1.3568515500000053 2.266052199999997
Zr 1.736274700000001 -1.8953494500000012 2.087650400000001
Cu 0.48087500000000105 2.5002498499999994 0.6639519000000007
Cu -1.7276249000000004 1.8310527500000013 1.2486496000000002
Cu 0.03277489999999972 0.16415215000000316 0.6141509999999997
