13

Zr -0.9864493000000003 2.7799501500000012 -1.4357509999999998
Cu 0.9207506000000016 -2.7799501500000012 -0.35265160000000506
Cu -0.3860501999999997 -1.6152486500000016 1.2588481999999992
Cu -1.1180486999999992 0.21325024999999798 -2.6194515000000003
Zr -1.4514493999999978 -2.449950150000003 -1.3515491000000033
Zr -1.9394482999999987 1.738049549999996 1.7016505999999971
Cu -2.2212496 0.7177515499999991 -0.5533505000000041
Zr 0.9556512999999995 2.323651349999995 1.003648799999997
Zr 1.4781504000000005 -0.6304482500000006 -2.4508495000000003
Cu 2.196049700000003 -1.1351499500000024 0.7426509999999986
Cu 2.2212496 1.9838495499999986 -1.3996487000000037
Cu 0.580451 -0.15064905000000195 2.6194515000000003
Cu -0.1316500000000005 0.4816522499999998 -0.3897495000000042
