15

Zr 2.797353749999999 0.7582492999999992 -2.351600649999998
Zr 0.04005245000000457 2.2732487 -2.2378998500000016
Cu -0.7893466499999988 -2.8383502999999983 1.6856993499999966
Cu -0.3915500499999922 -0.17585180000000022 -2.425800249999998
Zr -1.143251449999994 -2.344751300000002 -0.6830978499999993
Zr -3.1896495499999986 -0.6110514999999985 -0.5550995500000049
Cu -1.6215457499999957 -0.2341518000000029 1.7498015499999973
Cu 0.6461543500000033 -1.2608509000000048 2.425800249999998
Cu 1.1549510500000082 2.8383502999999983 0.3288993499999968
Zr -1.7452487500000018 1.7897511000000002 0.11949914999999933
Zr 0.3363552499999969 1.2720509 2.33300015
Cu 3.1896495499999986 1.3644505000000002 0.29280084999999545
Zr 1.6166515500000003 -2.1831493 -1.7213974500000013
Zr 2.974355750000001 -1.433450699999998 0.9852027499999956
Cu 0.35024844999999516 -0.22704890000000333 -0.07999805000000393
