14

Cu -1.7069510999999977 -1.9408045000000005 -1.2301502000000006
Cu 0.337947800000002 -1.6921454000000011 -2.2643489999999993
Cu 2.6049500000000023 -1.0507144999999998 -0.7062512000000005
Zr -1.9503516999999988 0.5481347999999997 -2.571050699999997
Zr 1.643947599999997 0.4443350000000006 -2.647550599999999
Cu 0.38064959999999814 2.6092347999999994 -1.403448100000002
Zr 0.6384505999999988 -2.6675348000000003 0.8116511999999965
Cu -0.25535190000000085 -0.7807645999999995 2.647550599999999
Cu -2.4607506000000043 0.6635350999999989 0.689351999999996
Cu -2.6049500000000023 -1.3031950000000005 2.0313509999999972
Cu 2.2526474000000007 -0.6419648999999996 1.3466509999999978
Cu -1.0946502999999979 2.6675348000000003 0.684049599999998
Zr 0.624648999999998 1.4831351999999995 2.459951399999998
Zr -0.3277511000000004 -0.19506450000000086 0.024950000000000472
