14

Cu -1.324050899999996 1.3465995999999976 -2.0281524500000003
Cu 1.5794525000000021 -2.470397900000002 -0.5500525499999966
Cu -0.4878501999999969 -2.7733002000000013 0.9703483500000019
Zr -3.050949099999997 -0.6730994999999993 -1.9782523499999982
Cu -1.2804488999999961 -2.7227974000000046 -1.0496520499999988
Zr -2.8393515999999934 -0.6008987000000019 0.9792480500000025
Cu 0.4395485000000008 -1.4959984000000048 -2.711750049999999
Zr 1.7368469000000033 -0.2356985999999992 1.412448850000004
Cu -1.0767516999999955 1.5134010000000018 0.3918496500000046
Zr 1.5797500999999983 1.7299995999999993 -2.073352749999998
Cu 0.8611527000000052 2.7733002000000013 -0.049751249999999914
Cu 3.050949099999997 -0.49819949999999835 -1.2191505499999948
Cu -0.4663505999999984 -0.4940987000000021 2.711750049999999
Cu -0.4132499999999979 -0.4741974000000013 -0.5520515500000016
