15

Zr -2.819450400000001 0.7534027499999922 -0.6721997000000011
Cu -1.728349699999999 -0.4460982500000057 2.157699100000001
Zr 0.2014503000000012 -2.8165969500000045 -1.9933000000000005
Cu -1.0854511000000002 1.8423997499999984 -2.1159997000000006
Cu -1.1192512999999984 -0.32779695000000686 -2.763000000000001
Cu -1.7973500000000016 -1.931800850000002 -0.413599500000001
Cu 2.819450400000001 1.736602849999997 -0.26079979999999825
Zr 2.5310497000000005 -1.1669998499999963 -0.14189959999999946
Cu 0.9989489999999996 -3.1044998499999963 0.8733992000000006
Zr 1.2592487000000006 0.31169894999999315 -2.2455000000000007
Zr -0.14484979999999936 3.1044998499999963 -0.41470000000000073
Cu 1.7851505000000003 2.3251037499999967 1.9889006
Zr -1.1377506000000004 1.8301011500000044 2.763000000000001
Cu 0.621250100000001 -0.8083953499999978 2.1231989999999987
Zr -0.15145109999999917 0.19419865000000414 -0.1017002999999983
