15

Cu -0.5223503499999982 0.12834930000000355 -2.8593979000000047
Cu 1.3922500499999995 -1.276748700000006 -1.8221970000000027
Cu -2.37725075 -0.1926498000000052 -1.5196990999999969
Cu -0.9343510499999983 -2.3724518000000003 -1.3481979999999965
Cu -2.80405045 1.3597489000000067 0.2000960999999961
Cu 0.5864486499999995 -2.8576507000000007 0.1082992000000047
Zr -1.7647494499999983 -2.9573516999999967 1.4661025999999993
Cu -2.398950649999998 -0.7277527000000035 2.307899500000005
Cu 1.3870486500000023 -0.08605189999999396 2.398803700000002
Cu 2.80405045 -0.02844999999999942 -0.039596599999995874
Zr 0.6523494500000009 1.8335494999999966 -1.1559982999999932
Cu -0.7840500499999994 2.9573516999999967 1.6659012000000075
Cu -0.7763500499999996 0.8932495000000031 2.8593979000000047
Cu 2.1535491500000017 1.8016509999999997 0.9895019000000076
Zr -0.4060497499999993 -0.027053799999997352 0.2273025000000075
