17

Zr -1.2548249 -0.3332004999999967 -3.17523
Cu -2.8452450999999996 -1.7978000999999963 0.6942300999999995
Zr -0.8909452 -2.5609989999999954 -0.7307701
Cu -0.09167509999999979 -2.8412991000000005 1.6523303999999994
Cu 1.9491851000000002 -2.1918010999999993 -0.24096969999999995
Cu -2.4082752 0.6959018000000015 -0.49456970000000045
Cu -1.4378950999999995 -1.0788975999999977 2.2010306999999996
Cu 2.8452450999999996 0.2506006999999997 -0.7035694000000001
Zr 2.2450349000000003 -1.1049976999999984 2.052630399999999
Zr -2.3429350999999996 1.4449024000000037 2.3723307
Cu -0.16724519999999998 1.8831005000000047 -2.083509500000001
Cu -1.100765 2.8412991000000005 -0.15496920000000092
Cu 1.3180749 0.18309969999999964 -2.5191393
Cu 1.4938151 2.262701 -0.8289700000000009
Cu 2.1169851 2.1084002999999996 1.702330599999999
Cu 0.38237509999999997 0.6162013000000002 3.17523
Zr 0.02383490000000066 0.3621996999999979 0.18203069999999943
