12

Zr -1.4325642000000007 -2.6753502000000005 0.8974160799999993
Cu 1.6858353999999993 -0.8869514999999986 1.383026919999999
Zr -1.9196648000000005 -0.46454999999999913 2.39888672
Zr 1.7125353999999993 2.4421501000000028 1.5144467200000022
Cu -0.7355647000000003 1.7588501 1.5533165200000028
Cu -2.4896350000000007 -1.4378509999999984 -1.1780844200000047
Zr 1.1223350000000005 -2.671451600000001 -1.0005865199999988
Cu -0.6410641000000004 -0.1220511999999978 -2.3988867200000072
Zr 2.4896350000000007 0.2528496000000011 -0.805686019999996
Cu -1.9994644999999993 0.6652488999999981 -0.22868252000000666
Zr 0.5140357 2.6753502000000005 -1.461287519999999
Cu -0.022864799999999796 -0.409950300000002 -0.04618741999999543
