14

Zr 0.53120045 0.3711013999999935 -2.794250550000001
Zr 0.6174011499999992 -2.9740982000000002 0.4678497499999992
Cu -1.65570065 1.2711982999999947 -1.6273498500000017
Zr 0.2975006500000035 2.9740982000000002 -1.443950650000005
Cu 2.6087989500000006 1.5950011999999987 -1.1326522499999996
Zr -2.6087989500000006 -0.26350020000000285 0.9701499499999997
Cu 1.8073997500000019 -0.7765006999999997 -0.4772491500000058
Cu -1.119300850000002 -1.0074005000000028 -0.7945518500000048
Zr -0.8520011499999995 -1.837200100000004 2.794250550000001
Zr 2.0115014500000044 -0.8984985000000023 1.9010505500000008
Zr -1.79349895 2.8282012999999964 0.5865478499999952
Zr 2.0899009500000005 2.199798599999994 1.3087501499999945
Cu -0.08290094999999553 1.3595008999999934 2.5906524499999932
Cu 0.08100124999999991 0.5155982999999935 0.2194480499999969
