16

Cu 0.8047995499999994 -2.543602000000007 -1.6719473999999934
Cu 2.90409995 1.768501299999997 -0.45975099999999713
Zr -2.233700250000001 -1.9445038000000068 1.0173531000000082
Cu -1.1854005499999998 -1.2954026000000027 -2.126346599999991
Zr -2.939300050000001 0.6428985000000011 -0.7933463999999901
Cu 0.31669955000000005 -1.3365021000000041 2.3076516
Cu 1.5377002500000012 -0.3803024999999991 -2.9103508000000033
Cu 2.939300050000001 -0.8495026000000081 -0.8843497999999954
Cu 2.3819003499999996 -2.7712020999999964 0.1976508999999993
Zr 2.361400149999999 0.5716017999999963 1.986255700000001
Zr -0.46789974999999995 1.6961974999999967 2.9103508000000033
Cu -2.6684994499999997 0.5151977000000016 1.8763542000000086
Cu -1.1472001499999989 1.8756027000000017 0.5363504000000034
Cu 1.0682997499999987 2.7712020999999964 1.0628547999999967
Cu 0.8558001500000012 2.3106994000000043 -1.5810507999999999
Zr 0.36250064999999854 -0.28340149999999653 -0.06774519999999029
