16

Zr -2.640049000000001 0.6731502000000003 -0.9368504999999985
Cu -0.5259514000000003 -0.6373490999999998 -3.1388502000000003
Cu -1.1121520999999994 -2.2857503999999995 -1.4708490000000012
Cu 1.309249900000001 -0.7967501000000023 -1.8396501
Cu 2.7125511000000024 -1.9196501000000001 0.0930509999999991
Cu -0.37195199999999673 2.4984503 -0.23285010000000028
Cu -0.2490501000000016 1.4210501000000004 -2.1916493999999993
Cu 0.3752480000000027 -2.4984503 0.22165010000000152
Cu -2.7125511000000024 -0.8592501000000023 1.249649999999999
Cu -0.9384497999999972 -1.7807493000000019 2.7939519999999973
Cu 2.3126488000000016 0.8056497999999994 -0.1182489000000011
Zr -1.176849299999997 1.0553502999999989 3.1388502000000003
Zr 1.4990502000000028 -0.6357507000000009 2.6787519000000017
Cu -2.6691512999999993 1.9620504000000007 1.2580500000000008
Cu 1.1060486999999988 2.1177492000000004 1.8408498999999985
Zr -0.2782516000000008 -0.2023495999999998 0.41285039999999995
