13

Cu -0.5076485500000025 0.5040015500000052 -2.939749749999999
Zr 2.171550749999998 -0.08839805000000212 -1.9899491499999993
Zr 1.8203506499999982 -2.619098650000005 0.9059495500000008
Zr -2.7808494500000016 -0.382297549999997 -1.3207502500000015
Zr -1.5936508499999995 -2.1288986500000036 1.6097497500000006
Cu -2.5152474500000004 1.9790000500000033 0.3613500500000004
Zr -0.39704905000000323 2.619098650000005 1.3836507499999993
Cu -0.4369507500000047 0.21409985000000376 2.825749449999998
Cu -0.3831482500000014 -2.244197849999999 -1.4989500499999995
Cu 1.2106513499999956 2.3193015499999987 -1.0659494499999997
Zr 2.7808494500000016 1.848300849999994 0.9900503499999989
Zr 2.200950549999998 -0.4243965500000044 2.939749749999999
Zr -0.0926475499999988 0.1923026499999949 0.19595044999999978
