11

Cu -0.13404939999999854 -0.8817024000000018 -2.2596497500000003
Zr -0.5203485999999984 -2.4716988000000057 0.8112511499999995
Cu -2.1659498 0.23669810000000524 -2.003349750000001
Zr -2.926249500000001 0.4407004999999984 1.3374504500000013
Cu 2.2530508000000005 1.943698899999994 1.0593514500000003
Cu 1.9956502999999977 -1.7577018999999936 -0.12124965000000021
Zr 0.13374999999999915 2.4716988000000057 -1.6793493499999999
Zr 2.926249500000001 0.7318000999999938 -1.1199497500000009
Cu 1.318652199999999 -0.21850199999999376 2.2596497500000003
Zr -0.4153489999999991 2.1851997000000054 1.9360509500000012
Cu 0.11525059999999954 0.24979780000000318 -0.3526492499999998
