14

Zr -0.48144720000000163 -2.4069995499999983 -2.462848700000002
Cu -1.6593495000000011 0.033502550000005016 -1.9303474000000023
Zr 0.7322521000000002 1.0475024499999996 -2.8134498000000008
Zr -0.9116497000000017 -1.6849994499999958 2.8134498000000008
Cu -1.7896480999999973 -2.3556003499999996 0.10875320000000244
Cu 1.5873507999999994 -0.4881992499999974 -0.9658469999999966
Cu 0.8506527000000013 -2.3257999500000004 -0.12784959999999757
Cu 1.6062527000000024 -1.7875004499999996 2.0658531999999994
Zr 2.9171505000000018 0.1633014500000023 1.4714507999999995
Zr -2.9171505000000018 1.778001750000005 0.9154509999999974
Cu -1.1177501999999997 2.4069995499999983 -1.1060486000000012
Cu -1.014650299999996 0.8046016499999986 2.7722510999999983
Cu 0.9839497000000001 1.8323001499999982 0.4382513999999986
Zr -0.37534909999999755 -0.09350004999999939 0.25445169999999706
