15

Zr -1.09795 -0.7394504499999961 -2.8163490499999995
Cu 1.3614502999999987 -1.6105517499999955 -1.3849524500000001
Cu -2.717549300000001 0.799345050000003 -0.35564794999999094
Zr -3.216249500000001 0.24854854999999887 1.9670449500000018
Zr -2.8048496 -2.7558536500000024 -0.9851492499999921
Cu 0.3813494999999998 -0.5286502500000019 2.8163490499999995
Cu -1.1813488000000012 -2.4858531500000005 1.4786491500000096
Cu 1.4002494999999984 1.5459500500000054 -1.684154449999994
Cu -0.3825493 -3.1287517499999957 -1.1713523499999923
Cu 1.070751200000001 1.5169506500000018 1.2919502499999993
Zr 1.9295501999999987 -2.5054530499999963 1.280651149999997
Zr 3.216249500000001 0.12014585000000366 -0.171955049999994
Zr -1.3344498000000007 3.1287517499999957 -0.9630546500000037
Cu -2.197649000000001 2.4683513499999954 1.3394508500000057
Zr -0.36154940000000035 -0.2155551499999966 0.05694975000000113
