12

Cu 0.9315499999999997 -0.3196849999999998 -2.8041495999999997
Cu -0.4044504 -1.9831152000000003 -1.3244494999999992
Cu 1.9903497999999988 -1.2760447999999993 -0.3854493999999997
Cu -1.659150200000001 0.18231489999999972 -1.5660495999999986
Zr -1.9903497999999988 -1.4638051999999995 0.7226505000000012
Cu 1.8599499999999995 1.3477145000000004 0.5716496000000015
Zr 0.9824496000000007 -1.7401046000000004 2.2609500999999996
Cu -1.5283499000000003 0.5686149999999994 2.8041495999999997
Zr -1.494749999999998 1.9831152000000003 0.6420497999999997
Cu 0.6998490999999998 1.8802146999999998 -1.1205492000000001
Cu 0.6470499000000007 1.0929146000000003 2.5148506
Cu 0.08484930000000013 0.05001449999999963 0.3789502000000011
