12

Cu 2.5753993999999985 1.1316089800000029 -0.06413888000000156
Zr 1.5765971999999984 -0.5795180800000068 2.0090613200000007
Cu -1.8267002999999953 -0.8660170799999989 -2.1041927200000075
Cu -2.354497999999996 0.64168102 -0.07497878000000213
Zr -0.8859996999999957 -2.084713580000006 2.3711910199999977
Cu 0.5755978000000006 -2.735317979999998 0.47796111999999624
Cu -0.6620998999999976 1.1010849199999981 1.8656712199999959
Cu 0.3991985000000007 2.890019179999996 -0.0958487800000043
Zr 0.771299299999999 0.921382219999991 -2.371191020000005
Zr -2.5753993999999985 -2.890019180000003 -0.14438868000000582
Cu 0.5443020000000054 -1.8161131800000092 -1.6666926199999992
Cu -0.5497989999999966 -0.4736143800000079 0.2104312199999967
