13

Cu -2.840299650000002 -0.12155150000000248 -1.2120009000000005
Cu -0.7584972500000013 -2.106948800000005 0.6184997000000001
Zr -0.5638981500000035 -0.5854492000000064 -2.8453007
Cu 0.7212047499999947 -2.911849999999994 -1.3907002999999998
Zr 2.840299650000002 0.7605514999999983 -1.8120003000000002
Zr 1.8221034499999966 -1.511848399999998 0.5854998
Cu -2.080499750000005 0.36614990000000347 1.1310996999999992
Cu 0.2652034499999978 2.160453800000006 -2.4413004000000003
Zr -1.1733989500000028 2.911849999999994 -0.4904003000000001
Cu -1.8753986500000046 1.4287490999999974 -2.9236002
Zr 0.03149984999999944 -0.6413497999999933 2.9236002
Cu 1.5185985500000037 1.7826537999999985 0.843299899999999
Cu 0.08270065000000315 0.45224759999999975 -0.5842999999999998
