15

Zr 1.382445214999997 -1.949550600000002 0.41184795000000207
Cu -0.5330797849999982 -0.6002501999999978 -3.17424965
Zr 2.3125202149999993 -0.5978508000000033 -1.8034496499999975
Cu -2.1528511150000114 -0.7707480999999987 -1.2438488499999991
Cu 2.520090214999996 1.9226493999999974 -1.575349850000002
Cu -0.6048097850000005 -2.6520500000000027 -1.680952050000002
Cu 0.033580114999999466 1.3818511999999998 -2.343450650000001
Zr 0.8681052149999999 -0.27724839999999773 3.17424965
Cu 2.661350214999999 0.42864989999999636 0.8958491500000036
Cu -1.440151114999999 -1.7523498999999987 0.9766482500000038
Zr 1.2474852149999975 2.594249699999999 0.7291507500000023
Cu -1.1245696849999973 2.6520500000000027 -0.24365044999999697
Zr -1.5781517150000113 1.112350499999998 2.3546467499999935
Cu -2.661350215000006 1.2234496999999962 -0.40194894999999775
Cu -0.16179978499999947 0.24834820000000235 -0.028348950000001594
