12

Cu -0.00929500000000072 -2.4382991999999994 -1.5947828799999968
Cu -0.9879850000000001 -2.6723003 1.9569970200000029
Cu -2.4991250000000003 -0.8724002999999989 0.9967672200000024
Zr 0.9537349999999991 -0.6144999999999996 1.6715671199999989
Cu -2.2355652 1.6041012000000023 -0.43637307999999564
Zr -1.7568350000000006 1.3502998999999996 2.48522732
Zr 2.4991250000000003 1.7698002000000024 0.10983722000000284
Zr -2.0530552 -0.48099889999999945 -1.8929270199999948
Cu 1.9544950000000005 -2.3417987999999994 -0.03826267999999544
Zr 0.8045649999999993 -0.10639949999999843 -2.48522732
Cu -0.10526510000000044 2.6723003 0.43556712000000175
Cu -0.47168540000000014 0.1900997000000011 -0.12002267999999816
