13

Zr -0.2267198499999994 -3.0026502499999994 0.3378485999999974
Cu 0.6607799500000011 -1.8492498499999988 -2.2693481999999996
Cu -2.349009549999999 -0.5838499500000003 -0.2107506000000008
Cu -1.4525194499999996 -0.04794984999999752 -2.4790495999999997
Zr 2.1778802500000003 0.846049250000001 -2.035049500000003
Cu 0.04778005000000096 2.66854965 0.35005179999999925
Cu 2.3694801500000002 -1.0019502499999993 -0.20874790000000232
Cu 1.4891805500000013 0.9129495500000013 1.6462515999999958
Cu 0.6074800500000004 3.0026502499999994 -2.3992500999999997
Zr -2.3694801500000002 2.4431505499999995 -1.3441506000000025
Zr -1.8927793499999988 1.259749450000002 1.4691505999999954
Cu -1.2616195499999998 -1.3383511500000003 2.4790495999999997
Cu -0.007220249999998707 0.07714935 -0.5989494999999998
