14

Zr 0.1236991500000002 -2.508249300000003 -1.8401899999999998
Cu 1.977498950000001 -2.874250400000001 0.15735049999999973
Cu -0.3346005500000011 0.38495060000000336 -2.4979496
Cu -2.3547001499999993 -1.105649899999996 -0.8306504000000015
Zr 0.4991988499999991 2.6918507000000034 -1.3097497000000011
Cu 1.9074992500000008 -0.20854760000000283 -1.2126504000000011
Zr 2.3547001499999993 1.593351400000003 1.5983505999999998
Cu -2.03830155 1.7610493000000034 -0.4953499000000008
Cu -0.7737006499999985 2.874250400000001 1.5580502000000003
Cu 1.9763984500000014 -1.0800495000000012 1.562649799999999
Zr -0.6947002500000004 -2.455049500000001 1.398349699999999
Cu -2.190700549999999 0.09715080000000142 1.4467495999999986
Cu 0.08329954999999956 0.8234501000000023 2.4979496
Cu -0.05950174999999902 0.03334999999999866 0.05115029999999976
