11

Zr -2.060550649999996 -2.0294017999999987 0.41990274999999855
Zr -2.537151350000002 0.8409976999999991 1.1895027500000026
Cu 0.3078499500000049 -1.8607005999999977 -2.3177986500000003
Zr -2.080249749999993 -0.1606044999999945 -2.15679935
Cu 0.8610496499999982 0.7727985000000039 -2.5839996500000026
Cu -0.16195294999999987 2.1473025999999997 -0.7558974499999991
Cu 1.1071510499999988 -2.1473025999999997 -0.02980045000000331
Zr 2.537151350000002 0.7734012000000057 -0.06459805000000074
Zr 0.7390480500000081 2.141496599999993 2.141200949999998
Zr 0.531848949999997 -0.9479008000000029 2.5839996500000026
Cu -0.15265275000000145 -0.30579949999999556 -0.2525978500000008
