12

Cu -1.1700515500000002 -0.25014865000000164 -2.460948899999998
Zr -2.3012504500000013 -0.9877490499999997 0.2172508000000022
Cu 1.185848350000004 -0.6167487500000011 -2.5284499999999994
Cu -0.28725054999999955 -2.2530498499999982 1.3524512999999985
Cu 0.06694795000000298 2.2340507499999998 0.6353493000000014
Zr 2.3012504500000013 -1.6322498499999991 0.1577491999999978
Cu 0.2419471499999979 0.3623504499999992 2.5284499999999994
Cu 2.290649349999999 1.0816497499999986 0.7885513000000017
Zr -2.2166519499999957 1.6198501499999995 1.5785484999999966
Zr 1.1742477500000028 2.2530498499999982 -2.149650600000001
Cu -1.6171493500000018 1.854450250000001 -0.9744491000000011
Cu 0.11954875000000342 -0.014650349999998369 -0.3297499999999971
