13

Cu 0.7768478500000029 -1.580848600000003 -3.042500500000001
Zr 0.36654665000001074 -2.8349495000000005 1.6408986999999993
Cu -0.5514526499999945 -2.399250000000002 -1.5152997999999993
Zr -2.7447509499999896 1.4406509999999955 -0.22640139999999853
Zr -2.86894985 -1.6023482000000016 0.5881986000000001
Cu 1.1539535500000042 1.6247520000000009 1.109900399999999
Cu -0.4711532499999933 2.8349495000000005 -1.023699800000001
Cu -0.8213500499999995 1.9333495999999997 2.0512990999999996
Zr -1.3683471499999982 -0.37834930000000355 2.7131986
Zr 1.6903533500000023 0.7458495999999997 -2.0346002999999993
Zr 2.86894985 -1.0727501000000004 0.3198002999999989
Zr 1.3455505500000058 -0.251648000000003 3.042500500000001
Cu -0.22805025000000256 -0.20055010000000095 0.11189929999999926
