12

Cu 1.505199400000004 0.1282463000000007 -2.81795025
Cu -2.019998499999998 0.4541511999999983 0.6244498500000022
Zr -2.3083991999999984 -2.449451499999995 0.743350050000001
Cu -1.4172001000000005 -1.6343497999999954 -1.996250149999999
Cu 0.1647015000000014 1.3659476999999924 -1.256150149999999
Zr 1.1562997 -2.4487495000000052 -1.4019507500000001
Cu 0.8059006000000029 -2.461650899999995 1.6080504500000012
Cu 2.3083991999999984 -0.09624859999999558 0.32444865000000167
Cu -1.5664996999999996 2.425746899999993 -0.20835015000000023
Zr 2.054401399999998 2.461650899999995 -0.09014984999999864
Cu 0.8036995000000022 -0.28135299999999575 2.81795025
Cu 0.13130010000000247 -0.5471535000000074 -0.011450750000000731
