14

Cu -2.1641502999999993 -2.1429501500000008 -1.4467202000000006
Zr -0.556249600000001 -2.696550349999999 1.3138799000000008
Zr -3.029249199999999 -1.0906467500000012 1.1345797000000006
Cu 0.8217506000000014 -1.8345470500000012 -1.6905203000000002
Zr -0.9514503999999988 0.35455125000000365 -3.0203800999999997
Cu -2.4549503 0.8411502500000019 -0.6849204000000002
Cu -1.2360496999999988 1.3737506500000016 1.4235800999999997
Cu -0.3635501999999988 2.696550349999999 -0.37341979999999975
Cu 1.4200495999999987 0.8981532500000036 -2.3909302000000006
Zr 2.3532505000000015 -2.0190487499999996 0.9931793000000004
Zr 2.3570499 1.2689494499999974 0.6966799999999997
Cu 3.029249199999999 -0.5567493500000005 -1.1369200000000008
Zr 0.7657509000000005 -0.2731494500000018 3.0203800999999997
Cu 0.024950000000000472 -0.31724745 0.17867939999999916
