11

Zr -0.6565971499999961 -2.38756035 -0.8351497999999999
Zr 2.1158027500000003 -1.0210003500000004 1.6640491000000033
Zr -0.21960065000000384 0.28076024999999927 -2.290250799999999
Cu -0.46390155000000277 2.38756035 -0.5736485000000009
Cu 1.624599449999991 -1.3232102499999998 -1.1576519000000012
Cu -2.3270988499999987 -0.5178398500000005 1.0747509000000015
Zr -1.8313026499999978 1.9913602499999987 2.116048799999998
Zr 1.3658027500000003 2.040060549999999 1.9173488000000027
Cu 2.3270988499999987 0.9156604499999998 -0.5260487000000005
Zr -0.7333030500000035 -1.98282005 2.290250799999999
Cu 0.2877006499999908 0.08696034999999913 0.39415169999999833
