15

Zr -0.8556499000000031 -2.8399506000000017 -1.6187477000000001
Cu 1.099950800000002 -1.0278549000000012 -2.574249299999998
Zr -1.1951504000000028 1.1913451999999936 -2.5114479000000003
Zr 1.9465503999999996 1.2754516999999979 -2.4550476000000003
Cu 1.6808491000000032 -2.006553600000011 -0.29795070000000123
Cu -2.2358493999999993 -1.7523497999999975 0.8864517000000021
Cu -0.028848699999997507 -2.835655199999998 0.9626503
Cu -0.6432476000000023 2.8399506000000017 -0.674850499999998
Zr -3.3221492999999995 0.6996459999999942 -0.27714920000000376
Cu -1.1178493999999972 -0.5649490999999998 2.574249299999998
Cu 1.4488507000000013 -0.8996506000000082 1.886352500000001
Cu -1.6522502999999986 1.4752501999999978 1.711051900000001
Cu 1.3794498000000033 2.1781463999999957 0.5093498000000025
Zr 3.3221492999999995 0.7565459999999931 0.17015070000000065
Zr 0.06365010000000382 -0.03825379999999967 0.1773491000000007
