13

Cu -1.4724961000000008 -0.646549199999999 -2.1723480500000036
Cu -2.8581008999999966 -0.5828475999999974 0.058650950000000535
Zr -0.9051972000000035 -2.5685500999999995 0.11854935000000211
Zr 1.6604995000000002 -0.8216476000000021 -2.7097511500000024
Cu 1.6555022999999949 -1.4802475000000008 -0.13475034999999735
Cu -0.020599400000008927 1.4441528000000012 -2.394550350000003
Zr 2.8581008999999966 0.8418503000000008 -0.13835145000000182
Zr -2.6302948000000015 1.7926521000000015 -1.431549050000001
Zr -0.25569920000000934 2.5685500999999995 -0.057949149999998895
Cu -1.9248963000000003 -1.384750399999998 2.7097511500000024
Zr -1.5189972000000012 1.1907502 2.5036506499999973
Cu 2.0354004000000003 0.4338493000000021 2.1974486499999983
Cu -0.3938980000000072 -0.17044830000000033 -0.24145124999999723
