13

Cu 0.3826177649999991 -2.9697999999999993 -1.7149505500000046
Zr 2.7307527649999983 0.5705996000000013 -2.0022506500000006
Cu 2.2642484650000014 -1.7777986999999982 0.21694945000000132
Cu 0.8328477649999968 -0.6620989000000002 2.2279510500000015
Cu -0.17735456500000168 -2.800398699999999 0.8470497499999965
Zr -0.41135576500001036 1.3422003000000018 -2.2279510500000015
Zr -1.6519563650000038 -1.432000200000001 -1.687248150000002
Zr 2.1611767650000004 1.2235003000000013 1.1828499499999978
Cu -2.7307527650000054 0.6600999999999999 -0.6476516500000002
Zr -0.5389573650000017 1.6209002000000012 0.8481483499999953
Cu 1.1560877649999952 2.9697999999999993 -1.2354507499999983
Cu -1.395852865000009 -0.9043989000000003 1.3895493499999958
Cu 0.44488776499999716 -0.443999299999998 -0.33594895000000236
