14

Cu -0.285350750000001 -1.6391500999999993 -2.3145701999999995
Cu -1.240749450000001 -3.3641496 0.1524700000000001
Cu -2.33505055 0.38724949999999847 -2.7653
Zr -2.19174965 -0.11415050000000182 -0.05185010000000023
Zr -0.15925034999999887 1.824450099999999 -2.31794
Cu 1.0735491499999998 -2.4338498 0.10599019999999992
Zr 2.33505055 -0.4018492999999994 -2.2847798
Cu 2.15534965 1.4318508999999997 0.11689020000000028
Cu 0.97234905 3.3641496 -0.5394299
Cu 1.6959494499999987 -0.4380506999999989 1.5721600000000002
Cu -0.17445004999999902 -1.3523496999999987 2.0251
Cu -0.746250250000001 0.7978501000000007 2.7653
Cu -0.4632492500000023 1.898251000000001 0.9651101000000004
Cu 0.5064505499999985 -0.2569498999999995 -0.5139700999999999
