14

Cu -1.1325989000000014 -1.9096489000000005 -2.0990495000000013
Cu -0.15999989999999897 0.6444510999999977 -2.926949500000001
Zr 2.048500100000002 -2.3910484000000025 -1.0718488000000033
Zr -3.0671004999999987 0.058948499999999626 -1.3030500000000007
Cu -1.9491004999999966 -2.0475502000000034 0.18174839999999826
Cu -2.3236999999999988 1.874351500000003 0.6542520999999955
Cu -2.065498399999999 -0.10905069999999739 1.6712504
Cu 0.9603004000000048 2.3910484000000025 -1.5898504000000013
Cu 1.9626006999999994 1.3540497999999985 1.4095506999999987
Cu 3.0671004999999987 0.5122489999999971 -0.8441496000000033
Cu -1.458400699999995 2.2422485999999964 -1.864449500000001
Zr 0.640800500000001 -0.6942519999999988 2.926949500000001
Cu -0.6499976999999966 1.3802489999999992 2.8112498000000006
Zr 0.27260210000000384 -0.003448499999997523 -0.2226515000000031
