16

Zr 1.854499849999998 -2.8302903500000003 -1.5264497000000015
Cu -0.7402000500000003 -2.6287303499999997 -1.8673797000000016
Zr -2.193901049999999 -2.09244015 1.4654602999999993
Cu -3.037099849999999 0.8256201500000007 0.30995989999999995
Cu -1.2345008500000016 0.909619750000001 -1.2695403
Cu 0.913999549999998 -0.7871804499999993 -2.7032599
Cu 0.6499996499999998 -2.8514199500000004 0.6375602999999996
Cu 2.3682994500000003 0.8628201499999992 -1.7712102000000014
Cu 1.01420025 1.43512005 1.9641595
Cu 3.037099849999999 -1.7235799499999995 1.4651598999999988
Cu 2.8157997499999983 0.8003201499999992 0.6781602999999992
Zr -0.6590004499999988 2.8514199500000004 0.8301595999999991
Cu 0.42350004999999946 2.4291195499999994 -1.8435702000000012
Cu 0.44639964999999826 -1.22158005 2.7032599
Zr -2.018699549999999 0.8102202500000004 2.573159699999999
Zr 0.32149884999999934 -0.3718800499999997 0.26055959999999967
