15

Zr -2.0535545999999982 -2.0890007500000003 -0.3639993499999994
Zr 2.6410484000000025 -2.087699950000001 -0.9211998499999998
Cu 0.11474989999999252 -2.3206004500000006 -2.1384000500000004
Cu 0.2837485999999956 -2.6637001500000004 0.9567003499999993
Cu -0.12535479999999666 0.00589934999999997 -2.6542997500000007
Zr -2.2361489000000034 0.9822997499999992 -1.7288999499999997
Cu 2.5412482999999924 0.6544989500000007 -0.2424001500000008
Zr 0.8343466999999976 2.459798750000001 -1.466199950000001
Cu -1.3426551999999958 -2.00270085 2.2740002499999994
Cu -0.05485160000000633 1.5508002499999982 2.5401010500000014
Zr -2.6410484000000025 0.22509954999999948 2.0722999500000006
Cu -0.9487495999999993 2.6637001500000004 0.29559984999999944
Zr 2.008846300000002 -1.0583000499999997 2.6542997500000007
Cu 2.2475471000000056 2.438199949999998 0.80980015
Zr 0.07165139999999326 -0.2642002500000018 0.475399949999999
