14

Cu 0.1824502999999993 -2.739299749999999 -0.45974920000000097
Cu 0.23474990000000062 1.3318004500000011 -1.9114474999999977
Zr 2.6107502 -1.2541999499999985 -0.7242488999999956
Zr -2.4640503000000002 -2.706800450000001 0.4590512000000011
Zr -2.0919495 0.019800150000000016 -1.508050899999997
Cu -0.05694959999999938 -1.214500450000001 -2.539350500000001
Zr 2.58605 1.9962997500000004 0.34945109999999957
Cu -2.6107502 -1.4794997500000004 2.539350500000001
Zr 0.12034989999999901 -2.2812995500000017 2.284749999999999
Cu 2.336450599999999 -0.5225009499999995 1.7254506000000056
Zr -1.0100498000000009 2.739299749999999 -0.46845049999999944
Zr -2.3112496999999994 1.11989975 1.478849400000005
Cu 0.1709499000000001 1.85770035 1.865850500000004
Cu 0.041549699999999135 -0.2975997500000016 0.328550400000001
