13

Zr -1.0798492499999952 -2.446348199999999 -2.2404975500000006
Zr -1.376945450000008 -2.4209499 1.186901050000003
Cu 1.2189484499999992 -0.8910502999999999 -2.0353965500000015
Zr 2.011253350000004 -2.5632496000000025 0.0708045499999912
Cu -2.0669479499999994 -0.29955099999999746 -1.1045951500000086
Zr -2.7461471499999988 0.13165100000000152 1.76790235
Zr -1.3351516500000002 2.5632496000000025 0.07670215000000269
Cu 0.42565154999999777 1.0328502999999962 1.2392997500000007
Cu 0.14865114999999207 -1.0498484999999995 2.3784980500000046
Cu 0.07685094999999365 1.3632488999999985 -2.3784980500000046
Cu 2.7093507499999987 0.46444899999999834 -1.5211982499999976
Zr 2.7461471499999988 -0.09834859999999779 1.0645027500000026
Cu -0.03534695000000454 -0.42804909999999907 -0.22959515000000863
