13

Cu -1.3535995500000038 1.451637269999999 -0.30640035000000054
Cu -0.35260015000000244 1.800941470000005 -2.8502006500000014
Zr -2.148199050000004 -0.22296132999999685 -2.1630993499999995
Cu 1.2256012499999986 0.45603947000000034 -1.483999149999999
Zr 0.5475998499999992 -1.9666595300000083 -1.6630992499999984
Cu -1.0307998500000028 2.36107303 1.687700249999999
Zr -2.371000350000001 -0.5230636300000029 0.887399649999999
Cu -0.5854987500000011 -2.8337631300000012 0.6196002500000013
Cu 1.3611011499999979 1.2544403700000046 2.2639999499999988
Zr 0.8381004499999971 2.8337631300000012 -0.48529994999999815
Zr 2.371000350000001 -1.6818618299999955 0.798900549999999
Zr 0.3607006499999965 -1.7160644299999959 2.8502006500000014
Cu 0.08960154999999581 -0.26446533000000017 -0.018100749999998555
