13

Cu 0.6734750999999999 -2.6466403 -1.6160507499999976
Zr -1.583764 -2.1911602 -0.11975104999999608
Zr 2.023615 -1.5606502999999994 0.40415195000000104
Zr 0.11869099999999999 -0.22478049999999916 -2.941749549999999
Cu -0.9130434000000001 2.417040500000001 0.5054511500000007
Cu 0.8218349999999999 2.6466403 -1.3071480500000003
Cu -1.1833900000000002 1.545939900000001 -2.0194473499999983
Zr -2.968305 0.8156400000000006 0.2809524500000027
Zr 2.968305 0.9773403000000003 -1.9922485499999976
Zr -1.218101 0.2675795999999999 2.9272498500000044
Cu 1.6313149 -0.27125020000000033 2.941749549999999
Zr 2.1996149 1.8982397 1.078052450000003
Cu 0.173002 0.35802990000000046 -0.12215044999999769
