13

Cu -0.7621517499999975 0.776617729999991 -2.2874488999999976
Zr -1.3914509499999959 3.0172078299999967 -0.41104879999999966
Zr 1.310949350000005 2.4927079299999946 -0.8854483999999978
Zr -2.4048519499999976 -1.2020070300000043 -0.3880500999999974
Cu 1.2061481500000006 -0.4156072300000062 -1.6111487999999987
Zr 0.38965035000000015 -3.017207830000004 0.12945180000000178
Cu 3.07655145 0.5339929699999857 -0.053951199999996646
Zr -0.8298511499999996 1.6685078299999958 2.2112502999999997
Cu 1.6570491500000024 2.228667929999993 1.5253486999999986
Cu -3.07655145 0.9691379299999952 0.8976517000000008
Cu -0.7468509499999989 -1.2161061300000142 1.9188500000000026
Zr 1.7904491500000042 -0.7647053300000124 2.2874488999999976
Cu 0.06125065000000163 0.08909246999999709 0.3262520000000002
