14

Cu -0.4697008500000006 -2.301750049999999 1.6409289700000045
Cu -0.05749985000000102 -3.32994845 -0.5436985700000037
Zr -0.2575998500000001 0.03895185000000012 3.0333988700000063
Zr 2.167698849999999 -2.5231513499999956 0.38701867000000334
Cu 1.9413003500000006 -0.24765005000000073 1.8893187700000027
Cu -1.0576009499999994 2.021549250000003 1.2255489700000055
Cu -0.9681005500000008 -1.5892486499999983 -2.106702069999997
Cu -2.3977995500000002 -1.5861511499999956 -0.22649876999999208
Cu 2.3977995500000002 0.06024935000000298 -1.9515048699999937
Cu -2.1687002499999988 2.29005055 -1.4699985700000013
Zr 0.12530044999999923 1.5364494500000028 -3.033398869999999
Cu 0.266699749999999 3.32994845 -0.8286030699999998
Cu 1.9138994500000006 1.3453483499999983 0.2846887700000025
Zr -0.07630064999999853 -0.10065074999999624 -0.2235996699999987
