14

Zr -1.9444503500000039 -0.8007506999999983 -1.9109000999999992
Cu -1.1884536499999925 -3.2677498000000007 0.6735000000000007
Cu 0.4024505500000046 -2.4388504000000033 -0.7728997
Zr 2.2294464500000046 -0.2637520000000002 -2.6441002000000005
Cu 0.20314795000000885 1.4752502000000014 -2.4109993000000003
Cu -2.033454849999991 1.3706473999999993 -0.6142998000000013
Cu -2.030052149999996 -1.0256500000000024 1.144701099999999
Zr 2.6411514500000024 1.6196480000000015 -0.5672989000000008
Zr 0.29534914999999984 -1.7803496999999986 1.9043007000000003
Zr -2.6411514500000024 1.7363472000000009 1.9428996999999981
Cu 2.352546750000009 -0.35594940000000364 1.1140994999999982
Zr 0.5176468499999984 3.2677498000000007 0.25500100000000003
Zr 1.2563476500000021 1.2799492000000008 2.6441002000000005
Cu -0.06625365000000016 0.14344790000000174 -0.12069900000000189
