13

Cu -1.0695476000000035 -2.7024503000000006 -1.3778902
Cu 1.0581493000000002 -2.335150200000001 -0.15713979999999994
Cu -0.24054910000000618 -0.548050400000001 -2.5160598000000003
Zr -1.0773487000000053 2.7024503000000006 -2.4808398000000005
Zr -2.2749500000000005 -0.2778506000000007 0.8642996999999997
Zr 2.2485523999999977 2.3036484999999995 -1.8959198000000002
Zr 0.7795505999999968 -1.4084506 2.5160598000000003
Cu 1.7737522000000006 -0.4059510000000017 -1.6995898000000005
Cu -2.9573497999999994 2.0232490999999992 -0.3721100000000006
Cu 0.5885524999999951 2.6145501000000007 0.07347009999999932
Cu -0.3885479000000025 0.9077495999999989 1.6753596999999991
Zr 2.9573497999999994 0.7697491999999997 1.4513501999999998
Cu -0.05404850000000394 0.17034959999999977 -0.21926030000000063
