13

Zr 2.016363465000005 -2.418098449999995 -0.2861481000000037
Cu 0.3963520350000067 -1.213996850000008 -2.110349700000002
Zr -2.3133494650000017 -2.231399549999999 0.21995159999999636
Zr -1.9445520649999963 -0.02310175000000214 -2.516250600000001
Cu 2.9039484650000063 -0.1256026499999976 1.0739516999999967
Cu -2.903948464999999 0.9311981499999931 -0.17015080000000005
Zr -0.8423488649999911 2.418098449999995 -1.3377494999999993
Cu 1.1778539350000017 1.0671997499999932 -1.5027504000000018
Zr 1.032552035000009 1.6801986500000012 1.6956520999999984
Zr 0.7264530350000058 -2.1006011499999957 2.248149800000002
Cu -1.6327464649999968 -0.6892012500000035 2.516250600000001
Cu -1.5941493649999927 1.937103349999994 1.622550900000002
Cu -0.29905196500000386 0.10970305000000025 0.44314949999999875
