14

Zr 1.8359603499999992 -0.916200700000001 -2.017452200000001
Zr -1.0778398500000006 0.8484019999999965 -2.5596504000000024
Zr 2.88206005 1.1056994999999965 0.27975090000000336
Cu 0.4771204499999997 1.4879015999999972 -0.703853500000001
Zr -0.44223975000000015 -2.4321994999999994 -1.1572531999999924
Zr 0.10258004999999892 -3.102498999999998 1.6685447999999994
Cu -2.88206005 -1.9165974000000041 -0.20025249999999772
Cu 2.3549604500000005 -2.4090977000000002 0.1882514999999998
Zr -2.6401200500000006 0.6349009999999957 0.40424730000000153
Cu -2.2750501500000007 -1.2192973999999985 2.2506447000000023
Zr -1.0391297500000003 3.102498999999998 0.5139504000000059
Cu -0.9199800499999999 1.0823993000000023 2.5596504000000024
Cu 1.6571102499999992 -0.43989759999999833 2.5244484000000043
Cu -0.39215995000000037 -0.22509960000000362 0.8131447000000023
