12

Cu 2.666950250000001 -1.1108513000000073 -0.08860115000000057
Zr -1.1348495500000002 1.9779472000000027 -2.1073999499999996
Cu -2.666950250000001 0.04044720000000268 -1.0921011499999995
Zr -0.26815035000000087 2.788150799999997 0.3506994499999987
Zr 0.6499500499999993 -0.25125500000000045 -2.5369997500000014
Cu 1.979450250000001 1.9657478000000026 -1.2426995499999993
Zr 0.46915055000000017 -2.788150799999997 -0.5894002499999988
Zr -0.04804995000000112 -1.7831534999999974 2.5369997500000014
Cu -1.6937502500000026 -1.6872520000000009 0.2881994499999987
Zr -1.7484493499999996 0.8123513000000031 2.25819875
Zr 1.8515510499999994 1.151546499999995 2.0232000500000016
Cu -0.04594995000000246 -0.13525010000000748 0.24750044999999865
