16

Zr -1.1868000500000022 -0.6505012500000014 -2.7838993000000016
Zr 0.34770015000000143 -3.089500449999999 -1.2780016999999972
Cu 1.088098549999998 1.5324974499999975 -2.7609996999999993
Cu -1.4300022500000011 2.3236999500000017 -1.518301000000001
Cu -2.824800449999998 0.17449954999999662 -0.505300499999997
Cu -2.1702022500000027 -1.8758010500000033 -0.09890180000000015
Zr -2.0827007500000008 0.10519795000000087 2.118799199999998
Cu -0.5524005500000015 -2.4481009500000006 1.0823993000000058
Cu 0.32779885000000064 1.716999150000003 2.7838993000000016
Cu 1.624498349999996 -0.74610135 -1.9282017000000025
Zr 1.8917980499999985 -1.5759009500000012 1.6606007000000034
Cu -1.2978991499999992 2.5820007500000024 1.1068973
Zr 0.950300249999998 3.089500449999999 -0.5471020000000024
Cu 2.824800449999998 0.7768974499999963 -0.9142018000000007
Cu 2.6608982500000025 1.6208000499999962 1.4570025999999956
Zr 0.13500024999999738 -0.0022010500000000377 -0.16349989999999792
