11

Zr 1.826286715000002 -1.4924000999999993 0.27584834999998975
Cu -1.5081682149999978 -2.206900599999999 -0.7683487500000012
Cu 0.564991715000005 -1.3287990999999995 -2.175552449999998
Zr 2.7037707150000045 0.1537008999999987 -2.039947550000008
Cu 1.645989015000005 1.4758006000000012 0.44325254999999686
Zr -0.6579714150000058 -1.1253995999999997 2.2960510500000026
Zr -1.9257708149999928 0.5726004999999983 -2.2960510500000026
Cu -0.11512838499999845 2.206900599999999 -1.1848526500000105
Zr -2.7037707150000045 0.6046992999999983 0.668449350000003
Cu -0.5231676150000055 1.664900900000001 1.548850950000002
Cu -0.16031828499999534 0.11839959999999827 0.13275145000000066
