13

Zr -0.41500094999999604 -0.9878521499999984 -2.98940275
Cu 1.771800950000003 -0.9427509500000006 -1.5741996500000006
Cu -2.547401449999999 0.6228503500000038 -0.4178009500000037
Cu -0.3023986499999971 1.0307483499999996 -1.4924011500000027
Zr 2.547401449999999 1.6608485500000008 -0.25870135000000616
Zr 0.3027992500000032 -3.029649750000001 -0.5497017500000005
Cu 0.2492980500000037 -2.4556522499999964 1.997497549999995
Zr 2.1235007500000016 -0.5943508499999943 2.4729003499999926
Zr -2.360198950000001 -1.895650849999999 0.3250007499999974
Zr -1.491798450000001 -0.27085304999999593 2.98940275
Zr -1.3802986499999967 3.029649750000001 0.2547988499999967
Zr 0.5736999500000017 1.9486484500000039 2.2507018500000022
Cu -0.08769984999999636 0.04294774999999973 0.38619994999999463
