16

Cu 0.23170089999999277 -1.1295471000000035 -3.06304935
Cu -2.743999500000001 -1.019447300000003 1.6526565500000032
Cu 1.4528006999999974 -2.2470474000000067 -1.3529433500000039
Zr 1.8587989999999905 -2.2742462000000003 1.3584518499999945
Zr -2.5478020000000043 0.4628525000000039 -2.195846549999999
Cu -1.8496971000000002 2.601348899999998 -1.349548349999992
Cu 2.6715049999999962 -0.08715059999999397 -1.1358489499999962
Cu -0.12789539999999988 1.4407500999999954 -2.7283477499999975
Cu 2.381000499999999 2.2681504000000032 -0.8197479499999929
Cu -0.5741997000000083 -1.8728484999999964 2.7717514499999965
Cu -1.0316964000000013 -2.711852999999998 0.3796539500000051
Cu 2.743999500000001 1.2960509999999985 1.2833557499999984
Cu 1.4533042999999992 -0.30165099999999967 3.06304935
Cu -1.1584968000000089 0.8847503999999944 2.6782531500000033
Cu -1.1881981000000081 2.711852999999998 0.9793548500000071
Zr -0.06579980000000774 0.19554899999999265 -0.01734924999999521
