12

Zr -0.23435215000000653 -2.4469508999999974 -0.8858470999999994
Cu -1.8590469500000069 -0.8125514999999979 -2.6032505000000015
Cu 1.6263503499999956 -0.3123493999999951 -1.5610484999999983
Cu -1.3801498500000093 -1.543550499999995 1.6628512999999998
Cu 2.0085525499999903 -1.8230495999999974 0.31565290000000346
Zr -2.4343490500000087 0.386850299999999 0.010549600000004489
Cu -3.1848526499999963 -0.12594800000000106 2.3072529000000017
Cu -0.4132461500000062 0.9194469000000041 2.556150500000001
Zr 1.756149249999993 -0.5962505999999976 2.6032505000000015
Cu -0.10444644999999753 2.4469508999999974 -0.16024970000000138
Cu 3.1848526499999963 0.6842478999999955 0.6070498999999998
Cu -0.006851150000002804 -0.06725129999999524 0.4190502000000009
