13

Cu 1.5653214000000006 -0.31739900000000176 -2.4444499000000004
Zr 1.6970513999999999 2.162199900000001 -1.2341093
Cu -2.2993715999999997 -1.0573988000000014 0.05965000000000131
Cu -0.2210485999999996 -2.4196005000000014 0.8668504000000006
Cu 1.2080616000000002 -2.5306996999999996 -1.391950099999999
Zr -1.9486785999999998 1.139500599999998 1.8703504000000013
Zr -1.0747085999999997 -0.7588988000000008 -2.1110396
Cu -1.5003185999999997 2.1569012999999977 -0.7458299999999998
Cu 0.6851014000000002 2.5306996999999996 1.7160507000000003
Cu 2.2993716 0.6600999999999999 2.4444499000000004
Cu 2.2740916000000007 -0.7480001999999999 0.33715010000000056
Cu -0.2730185999999999 -0.4418001000000018 2.299150000000001
Cu 0.03671140000000017 0.34470079999999825 0.1307501999999996
