14

Cu -0.17490004999999886 -1.9901504499999998 -2.0897512999999996
Zr -2.35709955 -0.32345004999999993 -0.9507513000000003
Cu 1.0771007500000023 -2.4852504500000006 0.20464989999999972
Cu 0.03770065000000056 0.18364904999999787 -2.6876497000000015
Zr 2.35709955 -0.8497505500000013 -1.2889508999999997
Cu 0.5247002500000013 2.4852504500000006 -1.3678503000000006
Cu 0.6145000499999993 -2.37675095 2.4295492000000003
Cu -2.3373995499999998 0.6717491499999984 2.4365492000000017
Cu 0.022699349999999008 0.05884934999999736 2.6876497000000015
Cu -1.6230993499999995 -1.5671501500000016 1.4831494999999997
Zr 2.3430995500000007 0.04305074999999725 1.9226503000000008
Cu 0.8866996499999997 2.392950049999998 1.4287500000000009
Zr -1.6280994499999997 2.3005504499999976 0.19384859999999904
Cu -0.06480024999999845 -0.17424955000000075 0.21325020000000094
