13

Zr 0.5414749999999997 -1.8112506499999999 -2.9147491499999987
Cu 2.0401647000000005 -2.0895500500000015 -0.231548250000003
Zr 1.0347250000000003 -1.9858493500000005 2.5328522499999977
Cu -2.205055 0.26345064999999757 0.4805489499999993
Cu -1.9259751 -0.9858493500000005 -1.9738502499999981
Zr -1.0113552000000001 -2.73245045 -0.33954994999999855
Zr -0.5072848999999997 1.2306499499999983 -1.5512504499999977
Cu -1.5713050000000002 -1.5478496500000016 2.068248750000002
Cu 2.205055 0.25015065000000014 1.3415489499999964
Cu 1.8426253999999997 0.2151489499999979 -1.5269507499999975
Zr 0.09668520000000003 2.73245045 0.7444497500000011
Zr 0.06575510000000007 0.9972496499999988 2.9147491499999987
Cu 0.10362509999999991 -0.4698505500000021 0.29135134999999934
