13

Cu 1.5160504500000052 -0.373850749999999 -2.5149001999999996
Cu -0.5495509500000004 -1.92975135 -1.9524001999999996
Zr -2.341650049999995 -2.751851049999999 0.2702026000000046
Zr 0.4930514499999994 -2.840350149999999 1.3357010000000002
Cu -2.5931491499999986 -0.6389512500000016 -1.5786018000000013
Cu 0.5878505500000024 0.2703485499999978 2.1285019000000034
Zr 2.5931491499999986 -1.243950850000001 0.01370239999999967
Zr -2.4634495499999964 1.9122496499999997 -0.7604979999999983
Cu 0.13514895000000493 1.5870485499999987 -2.3661995000000005
Cu 0.109449350000002 2.840350149999999 0.7985000000000042
Zr 2.402452450000002 1.7264490499999994 -0.6961974999999967
Cu -1.6764507499999972 -0.16855144999999894 2.5149001999999996
Zr -0.26544764999999515 -0.06735134999999914 -0.33720399999999984
