14

Zr 0.7057448499999999 -0.6594982500000022 -3.2014007000000007
Cu 2.38492505 -0.27010154999999614 -1.1987990999999951
Cu -0.9312852499999997 -1.9172992499999957 1.4856987000000004
Cu -1.92857515 -2.0246982499999966 -0.6016005999999976
Cu -1.1815250499999999 0.5687045500000032 -1.8637008999999978
Zr -1.3754149500000001 3.0683994499999976 -1.2976989999999944
Cu 1.35731475 2.4558047500000093 -0.49900049999999396
Zr 0.7349850500000001 -3.0683994499999976 -0.39340209999999587
Cu -0.61851485 -0.3882961499999915 3.2014007000000007
Cu -2.8383351500000003 0.6483020500000087 -0.03960039999999765
Cu 2.8383351500000003 0.9531039500000098 1.125797300000002
Zr 1.97765515 -1.4327984499999964 2.373500800000002
Zr -0.6288250500000001 1.9896030500000101 2.2534981000000016
Zr 0.15418494999999988 0.021600650000006993 0.08819960000000293
