15

Cu -0.7989501500000014 1.2176632799999965 -1.494899649999999
Cu 0.2017497499999994 -0.9031167199999999 -2.55900005
Cu -3.28775025 -0.5597467199999997 -0.22389985000000046
Cu -1.6095484500000001 1.2217029800000034 0.7493000500000004
Cu -0.4900493500000014 -0.25332691999999923 2.55900005
Zr 0.6621513500000002 2.8333830799999973 0.30900004999999986
Cu 1.5454501499999989 1.3981131800000028 -1.6336002499999989
Zr 2.9525508499999997 -0.8977671199999975 -1.4407005500000007
Cu 2.0223503500000017 -0.750156920000002 1.8931007500000003
Cu 3.0263500499999996 0.8841332800000004 0.44330034999999945
Cu -1.7005500499999986 -2.08757928 -1.7518996500000004
Cu 1.1584510500000018 -2.8333830800000044 -0.7628993499999996
Zr -2.1743488499999994 -2.8083815800000025 0.9235000499999995
Cu 3.28775025 -2.3639846800000015 0.4717999499999994
Zr 0.01905055000000111 -0.7540269200000012 0.19549944999999802
