12

Zr -2.4540501 -0.3325500500000018 0.7741646999999992
Cu -1.352651600000005 -2.5601501499999983 -0.4510350000000001
Zr -2.426950399999999 0.2240523500000009 -2.7259649999999995
Cu 0.0533503999999958 0.8363532500000019 2.7259649999999995
Zr 0.29265020000000064 -1.1551475500000024 -1.5235352999999998
Zr 0.584249499999995 -1.6408501499999986 1.746264899999999
Zr 2.8229504 0.2821502500000008 -0.4768347999999998
Cu -2.8229504 2.0566520499999967 -0.8088354000000004
Cu -1.3547497000000028 2.4837531499999983 1.3078645999999994
Zr 0.7231502999999968 2.5601501499999983 -1.7013354000000005
Cu 1.2867488999999956 2.5281524500000003 1.096865199999999
Cu -0.5737514000000026 0.8329505499999996 0.07536459999999945
