11

Cu -0.913049700000002 -2.5534501499999998 -1.760147049999997
Zr -2.331449499999998 -0.7442498499999992 -0.6342467499999991
Zr 2.331449499999998 -1.1614498500000003 -2.2697486500000004
Cu 1.9347476999999955 -0.15894935000000032 0.5418510500000018
Zr -0.26704980000000234 0.6603503499999999 -2.53404995
Zr -1.0531520999999984 2.5534501499999998 -0.2324485499999973
Cu -1.4846514999999982 -0.10904924999999999 1.9072532500000001
Zr 0.3895473999999979 -2.41664935 0.6047515499999996
Cu 1.2849483999999975 1.8857503500000004 -0.9929465499999957
Zr 0.6881503999999978 1.3743501499999997 2.53404995
Cu -0.04095269999999829 0.10855055000000036 -0.05794905000000128
