11

Zr 1.3059503999999995 -1.400750649999999 -2.3520508500000012
Cu -1.4975101999999998 2.5255503499999996 0.3897514500000021
Zr -0.40205029999999997 1.5004496500000002 -2.1496506500000017
Zr 2.7051098 0.07824945000000127 -0.6140479500000033
Cu -0.9790999999999999 -2.0608505499999996 -1.785247850000001
Zr -0.7661302000000001 -2.451650149999999 0.889949749999996
Cu 2.5929100000000007 -2.5255503499999996 0.13705055000000144
Zr -2.7051098 0.395449150000001 1.3502502499999984
Cu 0.3633896999999999 -0.2700505499999988 2.3520508500000012
Cu 0.7939502999999997 2.0400500500000014 0.5337523499999968
Cu 0.07407970000000041 -0.05305044999999886 0.11384964999999525
