13

Cu -0.9456481500000002 -2.93085095 -0.12790015000000032
Zr 0.3222504500000021 -1.8514518500000108 -1.9077004499999983
Zr -1.928150149999997 -0.6217460500000058 1.5003003500000016
Cu -0.9645500499999962 2.93085095 -0.00680065000000063
Zr -3.1632499499999973 0.9181480499999921 -0.9548998499999986
Cu -0.5713501499999971 0.19684984999999955 -2.5164003499999996
Cu 1.202152250000001 -2.1291465500000086 0.42290015000000203
Cu 1.8913497499999998 0.23164744999998987 1.6390008500000004
Zr 1.6818504500000024 2.0028495500000005 -0.900799649999998
Zr 3.1632499499999973 -0.7052498500000084 -0.8718996499999978
Zr -0.9003486500000015 2.0899467499999886 2.5164003499999996
Zr 2.0790519500000038 2.8043479500000004 1.526099150000002
Cu -0.11324695000000062 0.4404487499999945 -0.07529924999999871
