15

Cu -0.4890003500000013 -2.1834526500000067 -1.868350999999997
Cu 1.7895984499999962 -1.6724510500000065 -2.0040511999999993
Zr 2.360700650000002 -2.0720481500000005 0.5801506000000032
Cu -2.4079990499999973 -1.9927482500000053 -0.8110503999999992
Zr -1.864999749999999 0.7591514500000045 -0.9675483999999983
Cu -0.2617015500000015 2.6551475499999952 -1.7928505000000001
Zr 1.0078983500000014 0.6773490500000037 -2.9510498
Cu 0.3691997499999964 1.424251549999994 0.7085495000000037
Cu 2.4079990499999973 0.43155285000000276 -0.4017485999999977
Cu -0.4543018500000038 -2.6551475499999952 0.5147515000000027
Zr -1.9209003500000001 -1.3094520500000044 2.0794487000000004
Zr 0.7455005499999992 -0.7646522499999975 2.9510498
Cu -2.179201150000001 1.9663505500000014 1.0758514999999989
Cu 0.01930044999999936 1.719348949999997 2.8269500999999977
Cu 0.21999934999999837 -0.4243507500000021 -0.17525100000000293
