14

Cu -2.0324507000000036 -1.7313994999999878 -2.1176508500000004
Cu -0.22505080000000355 1.4611969000000116 -3.1978511500000018
Cu -2.2878483999999997 0.47760010000001074 -1.7808513500000025
Zr 2.1425524000000014 0.2800980000000024 -1.683950450000001
Cu 0.594651200000003 2.7920990000000003 -1.4658488499999969
Cu -1.3185491999999979 -2.7920990000000003 0.2382488500000015
Cu 0.6545495999999975 2.601699800000013 1.2423496499999978
Zr -2.544249500000001 2.424400300000009 -0.06995205000000126
Zr 0.568852399999999 -2.1941986 -1.5913524499999987
Zr -1.2685498000000006 1.9395981000000049 3.1978511500000018
Zr -2.658249800000002 -0.4277037999999962 1.0751476500000017
Cu 0.29115009999999764 -1.1697005999999917 1.0935497499999975
Cu 2.658249800000002 -0.48010259999998794 0.7209492500000003
Cu -0.5880498999999997 0.5159988000000126 -0.14204965000000058
