14

Zr -2.806999250000004 1.0826670300000032 0.8721493499999973
Zr -0.8870964500000014 1.9652869300000049 -1.7512503499999994
Cu 1.8171005499999993 1.202757130000002 -1.7543497499999994
Cu 0.799003649999996 0.5124871300000038 2.4923505499999976
Zr -0.015098550000004707 2.4141471300000035 0.8927487499999991
Cu 2.806999250000004 1.052177130000004 1.142649549999998
Cu -1.670696250000006 -1.4817511299999921 0.6743497499999975
Cu -0.07649615000000409 -2.0950477300000045 -1.3272505500000022
Zr -1.9772986500000016 -1.2038505299999969 -2.3417502500000005
Cu 0.9660034499999952 -0.5565497300000004 -2.80745035
Zr 2.374099749999999 -1.4726493299999959 -0.13445005000000165
Cu -1.4849967500000005 -0.33964612999999133 2.80745035
Zr 0.6895027499999955 -2.4141471300000035 1.9102486499999998
Cu -0.07699585000000297 -0.0820428699999951 0.3485497500000001
