12

Zr 0.38343475000000016 -2.7314510500000004 0.5842971999999946
Cu -2.56131505 0.4308490500000026 -0.4541016000000013
Cu -0.7447550500000002 -0.6421488500000017 -2.554000799999997
Zr 2.52551505 -2.1136493499999993 -1.0491028
Zr 1.7668747499999995 0.7012501500000035 -2.1031990000000036
Cu 1.3466949499999998 -0.30755044999999726 1.5056991999999951
Cu -0.9912950500000002 2.1957493500000034 -1.2986984000000064
Cu -0.1177649500000002 2.7314510500000004 1.3105010999999962
Cu -2.55036495 -1.9792499499999998 1.2270965999999959
Zr -1.32971505 0.37544835000000276 2.554000799999997
Zr 2.56131505 1.9831486500000004 0.5482025000000021
Cu -0.08336495 -0.02145194999999589 -0.31289669999999603
