14

Cu 0.6818494499999996 -3.2623510000000007 -1.8001518500000024
Zr 0.4776487499999984 -2.332951500000002 1.109249049999999
Zr -1.820549950000002 -0.7368517000000043 -2.7513504500000003
Cu -2.611649550000001 -2.0908498000000026 -0.37855155000000096
Zr -0.050749749999999594 1.9571486000000018 -2.116951050000001
Zr -2.6848497499999997 0.6272496999999984 -0.5087509500000031
Zr 1.2750501500000002 -0.6886492000000022 -2.9249496499999985
Cu 2.6848497499999997 -0.8814516000000001 -0.14315035000000265
Cu 1.4772500500000003 1.510951099999998 0.48864744999999843
Cu -1.1371507500000018 3.2623510000000007 0.1457481499999993
Zr -2.344750450000001 -1.0598516 2.022747050000003
Cu -0.5097494499999993 1.6558484999999958 1.7079467500000014
Zr 0.6416502499999996 -0.2631502000000001 2.9249496499999985
Cu -0.06704994999999947 -0.25785160000000396 -0.21255114999999947
