15

Cu -0.6851483000000016 -2.116750699999997 -1.7392501999999972
Cu 1.3671512000000021 1.7241497000000017 1.5821495000000034
Zr -1.8479480000000024 0.8051491000000013 -2.4682502999999976
Zr 2.811952599999998 1.5756492000000009 -0.9653510999999959
Cu -0.1582470000000029 2.5605507000000003 -0.9291497
Cu 0.9569530999999998 -0.36865049999999755 -3.2449493999999994
Cu -2.056146599999998 1.637050600000002 0.1548499999999997
Cu -2.9097500000000025 -0.5477504999999994 -0.6562499999999964
Cu 0.4456501000000017 -2.5605507000000003 0.5927505000000046
Cu -1.6369496000000012 -1.9542503999999994 1.9195480000000025
Zr 2.382650400000003 -1.7869491999999987 -2.1077499999999993
Cu 2.9097500000000025 -0.7572498999999979 0.8465500000000041
Cu -1.1712474999999998 0.9199505000000023 2.8092498
Zr 1.0597514999999973 -0.48915099999999967 3.2449493999999994
Zr 0.2941532000000038 -0.11454969999999776 0.19244759999999772
