11

Cu -2.5458031000000005 -0.7014485000000015 1.0122280799999999
Zr -1.5790977999999996 -2.8435497000000005 -0.419671919999999
Cu 0.27419659999999624 -1.7273503000000012 1.2590314800000044
Cu 2.5458031000000005 -0.45084950000000035 -0.4836748200000045
Cu 0.3534965999999997 -1.6578503000000033 -2.031473019999993
Cu -0.5402030999999994 2.8435497000000005 0.6279278800000014
Zr 2.049999299999996 1.4504527999999972 1.016630280000001
Cu -0.6907995999999912 0.3451519000000012 2.1232699200000056
Zr -2.076198599999998 0.25435059999999865 -2.1232699199999985
Zr 0.9825019999999967 1.6654529000000018 -1.7784747199999913
Cu -0.1039008999999993 0.1443499999999993 -0.28286912000000086
