15

Zr -1.0999489000000047 -1.7546511000000002 -2.2225503999999994
Cu -2.2208481000000013 0.8414487999999984 -1.8527498999999992
Cu 1.4301527999999983 -0.7124510000000015 -3.1321496999999994
Zr -0.13834770000000063 2.5152502000000005 -2.171250399999998
Cu -3.2765503000000002 -0.9470509999999983 0.0715494000000021
Cu 1.6918524999999995 -2.1340512999999994 1.8848505000000024
Zr -1.0838471000000034 -1.984450299999999 2.5134497000000025
Zr -0.0772476000000033 -3.0301504 0.2978506000000003
Zr -2.692848300000005 2.4170484000000023 0.31714910000000174
Cu 1.9430504000000006 1.0632504999999988 2.0108499
Zr -0.23204810000000364 1.7858496000000024 3.1321496999999994
Cu 2.0317496999999953 2.261649100000003 -0.8437509999999975
Zr 3.2765503000000002 -0.18255140000000125 -0.23754980000000003
Cu 1.1125525999999972 3.0301504 1.030650099999999
Zr 0.09445189999999926 0.46144769999999724 0.08394910000000166
