15

Cu -2.383796750000002 -0.7989497000000005 -1.3843498999999966
Cu -2.463398050000002 0.41665129999999895 0.3501472000000021
Zr 1.0624046499999977 -0.6296495999999996 -3.2151526999999973
Cu -0.5461998500000007 -2.6817489000000014 -0.9599496000000087
Cu 2.2991981500000023 0.8709512000000013 -0.8045463999999996
Cu 0.26200105000000207 1.3509506999999994 -1.9523507000000038
Cu 1.656398750000001 -2.1958499000000016 -0.874752100000002
Zr -2.80009845 -2.2714494999999983 0.9240531000000018
Cu -1.258796750000002 0.43135119999999905 2.4379539000000037
Cu 0.481800149999998 -3.0117497 0.955448099999991
Cu 1.7469978500000067 -1.189849399999999 3.2151526999999973
Zr 1.0915031500000012 1.7616506000000003 2.169246600000001
Cu 2.80009845 -1.7230486999999988 1.3060492999999909
Zr -1.1540985500000005 3.0117497 0.2453497999999925
Zr 0.31949995000000087 -0.36914970000000036 0.3593483000000006
