15

Cu -1.0481947500000004 -2.4372481499999985 -2.0375995500000004
Zr -2.712898250000002 -0.421550749999998 -1.7400999500000003
Cu 1.562301650000002 -1.3252487499999965 -3.1227998500000007
Cu 2.712898250000002 -0.8801498499999987 -1.1020994499999999
Cu 1.3499984500000082 -3.0687484499999975 -1.1554994499999998
Zr 0.2790985500000076 0.8943481500000026 -2.34979915
Zr 2.6482010500000044 1.5853500499999988 0.20380015000000018
Zr -1.6167983500000034 -2.8179512499999966 0.9086007500000006
Zr 1.2131042500000078 -2.933849349999999 1.5108003499999993
Cu 1.8843002500000026 -0.08245084999999719 2.089499449999999
Cu -0.20949554999999265 0.00994875000000306 3.1227998500000007
Cu -2.5738983500000003 0.7423515499999986 1.04460045
Cu -0.3501968499999961 2.0132484500000025 1.5641003499999995
Cu 0.3949051500000067 3.0687484499999975 -0.6072998499999995
Zr 0.04579924999999463 -0.4597511499999989 -0.14470004999999997
