14

Cu -0.5652494000000043 -1.9943961500000071 -1.5919990499999912
Zr 1.6239481000000016 0.4330024499999965 -2.4653967499999894
Cu -0.9667501999999981 0.1853981500000046 -2.718601249999999
Zr -2.3228484000000034 -1.324100449999996 0.5853004499999983
Cu 2.7216500999999997 -0.9773978499999956 -0.4804954499999994
Zr -2.7216500999999997 1.0928993500000033 -0.937198649999992
Zr -0.2621488999999979 2.37369915 -0.7083015499999945
Cu 2.4616479999999985 1.1469001500000005 0.4490013500000103
Cu -0.8838491999999984 -0.2122993500000021 2.718601249999999
Zr 0.4434479999999983 -2.7858009500000023 0.7453041500000026
Zr 1.5172509999999964 -0.6265983500000019 1.942401850000003
Zr 0.17165089999999772 2.7858009500000023 1.6282006500000037
Cu -2.609850800000002 1.462200149999994 1.7842979500000027
Cu -0.25775049999999844 0.261203849999994 0.41510395000000955
