12

Cu 0.9136551349999991 2.5216686300000006 -1.5083504500000018
Zr -1.7374450650000028 1.8209088300000005 -0.7448540499999936
Zr 1.8213293649999969 -1.6869671300000064 0.12965005000000218
Cu 2.1840392650000027 0.23103216999999887 -1.8947563500000015
Cu -0.581942765000008 -2.5216686300000006 -0.8966560499999972
Zr -0.293643165000006 -0.5399640300000002 -2.5467491500000037
Cu -0.7399398649999966 -2.0919659300000077 2.0425452499999963
Cu -2.1840392650000098 -0.7047665300000077 0.03134535000000227
Cu 1.4423569349999923 2.0833190299999984 0.7111472500000033
Cu 1.6777542349999948 -0.3686688300000114 2.5467491500000037
Zr -1.3009444650000006 0.3786303699999891 2.220844250000006
Cu 0.20285493499999063 0.1820361699999964 -0.1887550500000046
