14

Cu -0.9914503999999997 1.3481924699999865 -2.7632522500000007
Cu -2.520949400000001 -0.29491213000000016 -1.5105514500000012
Cu -0.8453494000000017 -2.2965066300000103 -2.6591491499999975
Zr 1.4463509999999982 -0.5865075300000058 -2.3768539500000045
Cu -0.6672507000000021 2.9561059299999997 -1.1446533500000058
Zr -1.0519496000000021 -2.9561059300000068 0.949150049999993
Cu 1.8104505 1.5607931699999966 -0.6900482499999967
Zr -2.7794504 0.8765890699999943 0.8343505500000035
Cu -0.06355010000000227 1.65239167 1.4978484499999993
Zr 0.0777500999999976 -0.7354104300000017 2.7632522500000007
Zr 2.6280506999999975 0.9814932699999872 1.7476501499999912
Cu 2.7794504 -1.1818063300000006 0.08754735000000125
Cu 1.2930497999999968 -2.6770073300000092 -0.9208526500000076
Zr -0.1362506000000021 -0.3806131300000004 -0.30004885000000314
