14

Cu -1.281600950000005 1.6403522000000006 -2.3461990999999998
Zr 0.8591003499999985 -0.523550099999996 -3.3045997999999983
Cu -2.313999150000001 -0.7214489000000004 -2.5856971999999985
Zr 1.330799049999996 1.750551200000002 -0.7971993000000026
Zr -0.2518005500000058 -2.5840492999999984 -1.4211997000000025
Cu -2.056598650000005 -2.901349999999999 0.7700996000000018
Zr 1.4165992499999973 -1.8689498999999987 1.0055046000000019
Cu -1.494400050000003 -0.37705039999999634 1.7821006999999938
Zr -2.4892997500000007 0.7067508 -0.08619690000000446
Cu -0.9808006500000062 2.901349999999999 -0.31069949999999835
Cu 0.3361015499999951 -0.9858493999999975 3.3045997999999983
Cu 1.3014984499999969 0.8429508000000023 2.056003600000004
Cu 2.4892997500000007 -0.6748484999999977 -1.213199600000003
Cu -0.39939875000000313 -0.4459476999999996 -0.04299930000000529
