13

Cu -0.9477977999999965 0.2484016500000017 -2.527801450000002
Cu -2.2548999999999992 1.672698950000001 -0.7713012499999969
Zr -1.5502988000000002 -1.1217003500000011 0.6585998499999981
Cu -1.5871982999999972 -1.6805000500000027 -1.82640065
Cu 0.7092037000000033 -2.9444999499999973 0.1385003499999975
Zr 2.1214008000000035 1.6383018500000013 1.8423996500000008
Zr -0.08459669999999875 2.9444999499999973 -0.9953002500000032
Cu -1.213796699999996 1.4519004500000001 1.4959984499999983
Cu 0.10720239999999848 -0.1378975500000017 2.5942001500000025
Cu 1.7947024999999996 1.2299003499999976 -2.5942001500000025
Zr 2.2402020000000036 -0.6865997500000027 0.04249954999999872
Cu 2.2548999999999992 1.9602012500000008 -0.8590010499999998
Cu 0.13070100000000195 0.3034019499999978 -0.5825996500000024
