12

Cu -1.7121982500000037 -1.8458003999999981 0.07205004999999787
Zr 2.4871997499999985 0.06289860000000047 -1.5526504500000016
Cu -0.16769985000000176 -1.5141010000000001 -1.7269497499999993
Zr -2.4871997499999985 0.5674992000000039 -1.3246498500000001
Cu 0.06080054999999973 0.727701200000002 -2.5893497500000002
Zr 1.315999950000002 -2.7497997000000005 -0.12594985000000136
Zr -1.3800983500000008 0.11540030000000101 2.5893497500000002
Cu -0.1695003500000034 2.1575985000000024 1.7540492499999978
Zr 0.833799349999996 -1.2493991999999956 2.55534935
Cu 2.1177997499999996 0.5892009999999992 1.5464496499999996
Zr 0.7245998500000006 2.7497997000000005 -0.831949250000001
Cu 0.15540135000000177 0.08839990000000242 0.02555084999999835
