11

Zr 0.6384506000000023 -1.4719008999999943 -2.4972992000000005
Cu 1.3299484000000028 -1.9724044999999961 0.003997800000007601
Zr -1.2744522000000025 -2.494598400000001 1.1091004000000027
Cu -1.9671515999999976 -0.7333983999999987 -1.4505003999999957
Zr -2.3544501999999987 0.8619003000000021 0.7525024000000116
Zr 2.1309509999999996 1.0219955999999968 -0.8645018999999934
Zr -0.8758505999999961 2.494598400000001 -1.1904983999999956
Cu -0.25244900000000214 -0.2360000000000042 2.4972992000000005
Cu 0.31295009999999834 2.232399000000001 1.2196045000000026
Zr 2.3544501999999987 0.2735976999999963 2.218704200000005
Cu 0.1263504000000033 -0.03379819999999256 0.27670290000000364
