16

Zr -1.6201949 -2.911300699999998 -0.004150400000000332
Cu -1.6006551000000004 -1.1931992000000022 -2.0239486999999983
Cu -2.575645 0.026199300000001813 -0.23184970000000504
Cu 2.8696952000000002 -1.4780006000000014 -0.5045509999999993
Cu 0.9263253999999992 -1.8275986000000017 -1.8600501000000023
Cu -2.8696952000000002 1.4584006999999986 -1.8103485000000035
Zr -0.048154800000000275 0.9900017000000005 -2.8455505000000016
Zr 2.501095299999999 1.0895003999999986 -1.3340492000000026
Zr 1.192225 -3.1040993000000014 1.1637496999999968
Cu -1.8245950000000009 0.6451987999999957 2.494949300000002
Cu 2.0969949 -0.26869959999999793 1.7399483000000018
Zr -2.020535 2.4215012000000016 0.38415140000000036
Cu 0.1015849000000002 -1.2083015999999986 2.8455505000000016
Cu 0.6274151999999993 1.5665016000000023 2.249549899999998
Cu 0.9558549999999992 3.1040993000000014 0.4703482999999977
Zr -0.18315510000000002 -0.21039960000000235 0.05604929999999797
