13

Cu -1.113901099999996 0.5589522999999943 -1.9114990499999998
Zr 1.0877018000000014 -0.7123489999999961 -2.515300749999998
Cu -0.803598400000002 -2.201446499999996 -1.4803009499999966
Cu -2.570001600000001 -1.3917465000000036 0.11660004999999884
Zr -0.18969919999999618 -2.2818526999999946 2.2118988500000007
Cu 1.2190990000000035 -2.863250700000002 -0.2961006499999961
Cu -1.2034015999999959 0.5350493999999983 2.499099850000004
Zr -2.035799000000001 1.6026534999999953 0.38180165000000343
Cu 1.2485980999999988 0.6163481999999973 2.515300749999998
Cu 0.05600169999999949 2.863250700000002 -1.9388999499999962
Zr 1.4056987999999997 2.2135543999999996 0.21500014999999806
Zr 2.570001600000001 -0.7574463000000051 0.6358985500000038
Cu 0.03949929999999924 0.008651699999994378 -0.037300149999996535
