13

Cu 0.19814685000000054 -0.05614465000000024 -2.1773491000000007
Zr -0.9242515499999939 -2.552246050000001 -1.9269485000000017
Zr 0.5221519499999943 -2.7402496500000026 0.36745069999999913
Zr -2.8075523499999946 -1.445846550000006 0.1713523999999964
Cu 1.5168495500000034 -0.10104365000000115 1.0657501000000025
Zr 2.8075523499999946 -0.5050430500000047 -1.1512488999999988
Zr -2.5684546499999925 1.0313568500000017 -1.619247399999999
Cu -2.4982490499999983 1.5781556500000065 1.0514525999999975
Zr -0.07844925000000558 2.7402496500000026 0.7165490000000005
Cu -0.1879539499999936 1.9581527500000036 -2.4714507999999995
Cu -0.7556495500000011 -2.0909499500000024 2.4714507999999995
Cu -0.893352550000003 0.4198532499999956 2.3740501999999992
Cu -0.3832512500000007 0.007354749999997523 0.12485120000000194
