12

Zr -2.9140491500000003 0.44680114999999887 -1.2837505
Cu -1.0509509499999972 -0.8872995500000016 -2.565149300000005
Zr -2.472249950000002 1.1703004499999992 1.560648000000004
Zr -1.102949149999997 -2.5584993500000017 -0.2799511000000017
Zr 1.2456493499999972 0.35150044999999963 -2.0168513000000026
Cu -1.8572482500000014 -1.5430002500000022 1.9338475000000024
Cu 0.22894865000000308 -0.3555002500000022 2.565149300000005
Zr 1.8552494499999987 -1.7924985500000012 0.1618518999999914
Zr 2.9140491500000003 1.0665998499999993 0.4098530000000018
Cu 0.0030498500000000206 2.5584993500000017 1.1864490999999937
Cu 1.0980511499999999 2.4896020499999985 -0.6386509000000054
Cu -0.5591487500000021 0.034199749999999085 0.1744480000000017
