15

Cu 0.7443008999999989 -2.7243499500000006 -2.04390055
Zr -1.8265991000000028 -1.6247482499999997 -0.8227013499999991
Cu -2.9795990000000003 1.0665511500000058 -0.6360006499999997
Cu -1.6037978999999964 -0.9375496499999976 2.206698450000001
Zr -0.3133010999999968 -0.7922477499999978 -2.9770002499999997
Cu -0.7910003000000003 2.246551450000002 -2.1395006500000022
Cu 1.2292022999999972 1.9132499500000044 -0.7132005499999998
Zr 2.7687989 -0.22094734999999943 -0.7474011500000017
Cu 1.913200500000002 1.2666511500000048 -2.8037003499999997
Cu 1.986900300000002 -2.0081482499999943 1.3951997499999997
Cu 2.9795990000000003 0.6264495500000002 1.7197999499999987
Zr -1.2005004999999969 1.8744506500000035 0.9478998499999989
Zr 0.632099199999999 0.8194503500000003 2.9770002499999997
Cu 1.8809012999999979 2.7243499500000006 1.5064000499999999
Cu 0.39570239999999757 0.0029525499999998317 0.2704992500000003
