13

Cu 0.13219834999999946 -1.4361495999999931 -2.821651450000001
Zr 2.8003997500000004 0.11274720000000116 -2.117149350000002
Cu 1.9422988500000038 -2.380050600000004 -1.615249549999998
Cu 0.3712005500000011 1.1789475000000067 -2.678249249999997
Cu -0.5407027499999977 1.8086471999999958 -0.08625025000000264
Cu -2.289901750000002 0.16114810000000546 -1.8759498500000014
Cu 1.609298650000003 2.592453000000006 -1.2807501499999994
Zr -2.8003997500000004 0.40914920000000166 1.1265488500000025
Zr -1.3576011499999971 -2.592453000000006 0.6871490499999986
Cu 1.4223976500000042 -1.7675476000000003 0.8018494500000024
Zr 1.9423980499999978 0.71875 1.159351349999998
Cu -0.20790105000000025 -0.1953505999999976 2.821651450000001
Cu -0.1772995499999972 -0.4151535000000024 -0.4524497500000031
