12

Zr -0.9427509000000036 -3.0051999 -0.09115215000000276
Cu -1.0768526999999999 -1.270299500000001 -1.9007491499999993
Zr 0.5161496000000021 0.40819969999999994 -2.8442497499999995
Cu -2.2235508000000017 -0.9085992999999997 0.4375496500000047
Zr 2.2235508000000017 -2.2743001000000005 0.30405045000000186
Cu 2.021348999999997 0.7939992000000009 1.571949049999997
Cu 2.098650000000003 0.9534992999999998 -0.7245521499999974
Zr -1.6821498000000012 1.1852003000000009 -0.9340476500000001
Cu 0.3903485999999994 3.0051999 -0.3905525499999989
Zr -0.004552800000002577 -1.7914005000000008 2.8442497499999995
Zr -0.06955139999999815 2.1784005000000013 2.236347250000005
Cu 0.2145481999999994 -0.32240059999999904 -0.026645649999995413
