13

Cu 1.8107654149999988 -0.9316997499999982 -2.0895538999999914
Zr -0.5044735849999995 -2.0538997499999994 -2.660949699999996
Cu -2.243784585 -1.7458991499999996 -0.307449400000003
Cu 3.0580355150000003 -2.03359985 0.21884920000000108
Cu -0.6402392849999998 0.8306008500000015 -2.4233474999999984
Zr 2.340835415000001 1.5024013499999995 -1.2848511000000045
Cu -0.1539865849999984 1.1956005500000018 2.660949699999996
Cu -1.5993855850000003 -1.8937997499999994 1.6872482000000062
Zr 1.0807954149999972 -1.6802997499999996 2.6037521000000012
Zr -3.0580355150000003 0.5205001500000002 -0.8442535999999947
Cu 0.09581041499999543 2.0538997499999994 0.04824830000000446
Zr 2.3294555149999994 1.5576000500000013 1.9146499000000077
Zr 0.0355064150000004 -0.5195999499999981 0.0844497000000004
