13

Cu -1.069799500000002 -2.4660496000000007 -2.153900150000002
Zr 0.8948992999999987 -2.6703496000000007 -0.5750008499999986
Cu -0.6213990000000003 2.6703496000000007 -0.9042015499999998
Zr -2.154199600000002 0.09725059999999974 -2.578502750000002
Cu 1.930299699999999 -1.2022500000000003 -2.4514008500000024
Zr 2.355600299999999 1.3686508999999978 -0.6313019499999974
Cu 0.6683005999999985 1.0290494000000008 -2.863899149999998
Cu 2.4477005 -0.9718499000000014 0.8815002499999984
Cu -2.4477005 0.5372490999999995 0.4682998499999975
Cu -1.6786995000000005 -1.7049498000000005 0.8149985500000021
Cu -0.04059990000000013 -0.6483502000000003 2.863899149999998
Zr 0.02090069999999855 1.7609506000000001 1.7075996500000024
Cu -0.059400600000000026 -0.12175030000000131 -0.18080145000000059
