16

Cu -0.7116995500000023 -1.5996017000000045 -1.6255034999999936
Cu -2.397700350000001 0.08769989999999339 -1.492301900000001
Zr 0.1591004500000004 1.2673987999999987 -2.863197299999996
Cu -2.47129915 -2.108802800000003 -0.11460119999999563
Cu 0.3911008499999973 -2.6473999 0.6103973000000025
Cu 1.8368005499999995 -1.6350021000000048 2.2426987000000054
Cu 2.4868001500000005 -1.728401200000004 -0.1382981000000001
Zr -2.0540990500000014 -1.0449028000000062 2.644203200000007
Cu -1.2245988499999996 1.3330001999999972 2.863197299999996
Cu -1.4467993500000027 2.2630004999999933 -0.4481964000000005
Cu -3.0798006499999993 0.7498969999999936 0.7013014999999996
Cu 2.432900449999998 0.4762992999999973 -1.1638030999999955
Cu 3.0798006499999993 0.3700980999999963 1.1662979000000036
Zr 1.8643007499999982 2.6473999 -0.2722016000000025
Cu 1.3149995499999996 1.634899199999996 2.063797000000008
Zr 0.011900849999999963 0.16869739999999567 0.41230009999999595
