16

Cu -1.037699700000001 0.7296980999999967 -3.163049700000002
Cu -0.4329004000000012 -3.2177009000000005 -0.0702495999999968
Zr -2.6814012 -1.2866020999999996 -0.524351099999997
Zr -2.7635012000000003 0.7094000999999999 1.8461513000000025
Zr -0.5821008000000027 -1.710899400000006 -2.4791507999999993
Cu 1.3107004000000018 -1.853000699999999 -0.18374829999999776
Cu 0.9161997 0.18090049999999636 -2.014448199999997
Cu 1.6467981999999992 -0.7066002000000005 2.0729503000000022
Cu -2.6381006000000014 1.1888007999999992 -0.8639506999999966
Zr -0.9338999000000001 -1.7190018000000045 2.0712490000000017
Zr 2.7635012000000003 0.8931998999999955 -0.19074810000000042
Zr 0.5005998999999974 3.2177009000000005 -0.9303493999999972
Zr 0.8827981999999963 2.127098 1.7920512999999971
Cu -1.2293003999999996 2.2607001999999987 0.3785495999999995
Cu -0.4210996000000016 0.664100599999994 3.163049700000002
Cu -0.4007997000000003 0.0012015999999981375 0.223852100000002
