15

Zr 2.3419094999999994 -2.712449999999997 0.9947452499999998
Zr 0.4820595999999999 -2.6393489000000017 -1.5075149499999996
Cu -1.9427554000000002 -1.6851483000000016 -1.5772247499999996
Cu -1.1544904000000002 0.2328509999999966 -2.66395475
Zr 2.2781897999999994 -0.09074979999999755 2.66395475
Cu 0.33677979999999996 -2.1039486000000025 2.4652948500000007
Cu 2.1238093999999994 0.2176493999999991 -2.0322747499999996
Cu -2.5015894000000003 0.5711498000000006 -0.36867474999999983
Zr -1.2781403000000002 2.712449999999997 0.6218352500000006
Cu 0.2035695999999998 1.7408503999999994 -1.6740651500000001
Cu 0.9178696999999998 2.399351099999997 1.4265050500000007
Cu 2.5015894 1.0212497999999997 0.13883495000000012
Zr -1.8051014000000003 -2.1471500999999975 1.1917352500000002
Cu -0.9335604000000002 0.4129505000000009 2.259204850000001
Zr 0.02496969999999976 -0.5543498999999983 0.005645250000000157
