11

Cu 0.7707209000000004 0.05475234999999401 -2.9060497000000005
Zr -0.6308190999999999 -1.9143485500000068 -1.1220493000000005
Zr 1.2792310000000005 -2.6522483500000007 1.2421512999999997
Zr -1.4387540999999997 1.2435494499999962 -1.2280501999999984
Zr 1.0900509000000003 2.6522483500000007 1.9863511000000003
Cu -2.7179010999999997 0.31115344999999905 0.8633498999999993
Cu 2.1334509 0.26175305000000293 1.7743511000000005
Cu 1.3482109000000004 1.8425483499999942 -1.0805492999999977
Zr 2.7179011 -0.32804485000000483 -0.8062495999999975
Zr -0.6922690999999999 -0.3619499500000032 2.9060497000000005
Cu 0.3242809000000004 0.2233544499999951 0.12465090000000245
