13

Cu -1.8209990499999904 -0.8331003500000005 -1.0216503500000016
Zr 0.20529935000001132 -0.1943998500000017 -2.5548496500000013
Cu -2.361602749999996 1.3277997499999987 -2.4701519500000018
Zr -2.4369964500000023 -1.4835996500000004 1.3346501500000016
Cu -0.667900049999993 0.09179974999999807 2.5548496500000013
Cu -0.19499964999999264 -2.2680006499999994 0.25435064999999923
Cu 2.4369964500000023 0.8881997500000001 -0.4233493500000023
Zr 2.0485992500000023 -1.7506990499999997 -0.7409496499999975
Zr 1.700302150000006 -0.8320989500000007 2.4275493499999996
Zr -2.355598449999995 1.7615003500000004 0.9209499500000007
Cu -0.2380981499999919 2.17879965 -1.579851050000002
Zr 1.2975997500000105 2.2680006499999994 1.6520480499999977
Cu 0.20379635000001173 0.20320035000000125 -0.12484934999999808
