14

Cu -0.5779990999999995 0.28315538000000373 -2.765448600000001
Cu 1.813297200000008 0.589695380000002 -2.371748900000002
Zr -2.6795005999999972 -0.8384643199999999 -1.0908498000000026
Cu -1.5477027999999962 -0.8203745200000014 1.012652399999995
Zr -1.4656028999999933 2.4530152800000025 0.3870497000000004
Zr -0.06090170000000228 -2.257084419999998 -3.0530500000000007
Cu 0.17529679999999814 0.9980353800000046 1.5731496999999965
Zr 2.6795005999999972 -0.03355461999999676 0.14135259999999938
Zr 1.2196998000000008 2.9592160800000045 -1.088049800000002
Cu 1.6201974000000092 -2.202094619999997 1.0239514999999972
Zr 2.333797400000009 -2.14595422 -1.7908487000000033
Zr -0.37990179999999896 -2.9592160800000045 -0.2810487999999989
Zr 0.03479380000000276 -1.1393843199999978 3.0530500000000007
Cu 0.25589370000000145 -0.48084461999999917 -0.34705070000000227
