14

Zr -0.9381502999999984 -3.143850350000001 1.1857032499999995
Cu -2.7189503000000013 0.003747949999997502 0.6955986500000044
Cu -1.2507496000000007 -2.504449749999999 -1.4332962500000015
Cu 1.4064503000000013 -2.274751649999999 -1.7007980499999995
Cu 2.4306506999999993 -1.311952650000002 1.3196983500000066
Cu -2.331649799999999 -0.6799526500000042 -1.3130989500000005
Cu 0.8523502999999995 -0.5766506500000048 -2.867198949999999
Cu 0.6450501000000006 3.143850350000001 -0.7789955499999941
Cu -0.42405130000000035 1.4641475499999999 -2.9314994500000005
Zr 2.7189503000000013 1.4100475500000016 -0.18140034999999344
Cu -1.6161499000000017 -1.044050249999998 2.9314994500000005
Cu 0.47954940000000157 -0.125051550000002 2.182804049999998
Cu 0.42564969999999924 2.0796489499999993 1.1572990500000024
Zr -0.0006502999999984382 -0.3649502499999997 -0.32459634999999665
