13

Zr 0.40009684999999706 -3.0510000999999995 -1.2919998499999963
Cu -0.7697029500000099 -0.46250009999999975 -2.8964996499999955
Cu 2.1984977500000014 0.041799099999998646 -2.5421981500000044
Cu 2.8192024499999917 -2.189100699999999 -1.119499250000004
Cu -1.6608009500000094 -1.2701001000000005 1.2024993499999965
Cu 1.2996024499999947 -1.7181000999999991 1.5859984500000053
Cu 1.5003013500000009 2.4225993000000017 -1.1751022499999948
Zr -1.0360985500000055 3.0510000999999995 0.024398750000003133
Cu -2.8332024500000017 0.7397990000000014 -0.2732010499999973
Cu 0.6149024500000024 2.7816004999999997 2.0741958499999953
Cu 0.18400185000000135 0.32979920000000007 2.8964996499999955
Zr 2.8332024500000017 1.1104999000000007 0.7451018499999975
Zr 0.4201011499999936 0.23310040000000143 -0.17610175000000083
