11

Zr 1.5167998999999988 -0.15499879999999422 -2.4372501500000006
Zr -1.6037998000000009 -0.6824034999999995 1.4513492500000034
Cu 0.6161995000000005 -1.8901976999999945 1.827352550000004
Cu -1.7244986000000004 -0.6679001000000042 -1.4744472500000008
Zr -2.228099799999999 1.7929992999999982 -0.6888485499999994
Zr -0.09849930000000029 -2.7834015000000036 -0.3481502499999998
Cu 2.228099799999999 0.13340000000000174 -0.15064814999999854
Cu 0.2667999999999999 2.7834015000000036 -1.7991503500000015
Cu -0.4451999999999998 2.711799599999999 0.7629489499999984
Zr 1.5333004000000017 1.0018004999999945 2.4372501500000006
Cu -0.024499899999998576 0.4283981999999966 -0.3007488500000015
