13

Cu 2.532199849999998 -1.1671524000000062 -0.9373511999999984
Cu 0.7398033500000025 -0.8312530000000038 -2.5227508000000007
Zr -1.1637992499999967 1.5319444000000004 -2.4676513999999976
Zr 1.856002850000003 1.4849471999999935 -1.8574524000000032
Cu -1.843997950000002 -1.4675522 -2.5260506000000014
Zr 0.24440005000000298 -2.838249200000007 -0.39905169999999757
Cu -1.750499750000003 -1.2760544000000067 0.9237479999999998
Zr 1.2781028500000033 -1.2260512999999946 1.8459472000000012
Cu 0.002502450000001488 2.838249200000007 -0.33625029999999967
Zr -2.532199849999998 1.0737457000000035 -0.023250600000000787
Cu -1.132099150000002 0.8279495000000026 2.5260506000000014
Cu 0.5416030499999991 1.8565444999999983 1.7591476999999962
Cu 0.060600250000000244 -0.2859497000000033 -0.2076492000000023
