14

Zr -1.7736492500000018 -0.08999465000000084 -2.289199850000003
Cu 0.7139492500000024 0.7364652500000006 -2.8186988500000005
Cu -1.884550149999999 -1.7423445499999999 -0.022399850000002886
Cu -0.25565144999999845 -2.3762347499999996 -1.951398850000004
Cu -0.5390491500000003 -2.2217647499999997 1.3006019499999972
Cu 1.8391475499999963 -2.5016448500000004 1.6520004499999992
Zr 2.222448349999997 -0.8251845499999999 -0.7570991500000019
Cu -1.3710498500000021 -0.0230848499999996 2.0047988499999967
Zr -2.2987499499999977 1.88294485 -0.3377989500000034
Cu 2.2987499499999977 1.84044535 -1.550699250000001
Cu 0.04825014999999766 1.9708450499999999 1.37889865
Cu -0.007551250000002341 2.5016448500000004 -1.2091999500000021
Zr 2.259347950000002 -0.1766845500000005 2.8186988500000005
Cu 0.07754704999999618 -0.15945455000000086 -0.008598350000003308
