13

Zr -2.6227398 -1.2327498999999982 0.7856015000000021
Cu -0.783439599999999 -2.615650200000001 -0.8965998000000006
Zr 1.7863398000000008 -2.4983500999999997 -1.2225008999999964
Zr -2.0466298999999997 1.4125499999999995 -0.4233980000000024
Zr -1.2073897999999992 -0.23054889999999872 -2.5917998000000004
Zr 2.6227398 0.6718502000000015 -0.8492975999999963
Cu 0.13667019999999974 1.7688503000000004 -2.393998200000002
Cu 0.5078402000000009 2.615650200000001 0.06870170000000186
Cu -1.3215894000000001 0.7936496999999996 2.1733999000000033
Cu 0.0369701999999994 -1.9396495999999992 1.5355024000000022
Cu 2.2634402000000002 -1.2132492 1.305102299999998
Zr 1.6021404999999995 1.0133514999999989 2.5917998000000004
Cu 0.24766080000000068 -0.38394930000000116 0.08809940000000083
