15

Cu -1.8507957500000032 -1.8280525000000054 0.40774964999999774
Zr 0.40739824999999996 -2.567951200000003 -1.4104494500000015
Cu 2.217502550000006 -1.7860450000000085 0.9044499499999983
Cu -2.623203250000003 -0.003650600000007387 -0.4864496500000026
Zr 2.5644034500000004 0.07965479999999303 -1.2070498500000024
Cu -1.2840996500000017 -0.6891515999999953 -2.21644925
Cu -2.4047966499999944 1.5275535999999974 -2.67524955
Cu 1.0592002500000035 1.3576545999999965 -2.8841500500000006
Cu 1.2039985500000085 2.567951200000003 -0.14784955000000188
Cu 2.623203250000003 1.4164543999999992 1.4892507499999983
Cu -0.18919755000000293 -1.9924506999999991 2.3955502499999977
Zr -1.7833976499999977 0.14025500000000335 2.8841500500000006
Cu 1.3232002499999993 -0.04054640000000376 2.7748494499999996
Cu -1.3727989500000035 2.2143517000000017 1.1430497499999976
Zr -0.17529684999999517 0.34365480000000304 0.01994945000000037
