15

Cu 1.3603000500000029 -1.8997535000000028 -2.9409484500000005
Cu -0.5760973499999942 -0.4114493999999951 -2.63724895
Cu 1.7175998500000027 -2.367649099999994 -0.6004485499999959
Zr -1.5916995499999977 -2.269046799999998 -0.6716499499999955
Cu 0.22360045000000284 -2.6387519999999967 1.6550483500000013
Zr 0.6046009500000018 -0.16154860000000326 2.9409484500000005
Cu 2.9750995499999995 -0.3030509999999964 -1.687049850000001
Zr -3.0011005500000003 0.2628516999999988 -0.9853515499999972
Cu -0.8352985499999939 1.8140525999999966 -1.6464500499999986
Cu -1.5842989499999938 1.558246699999998 1.0231514500000003
Zr 1.0547008499999997 2.6387519999999967 2.024848949999999
Cu 1.6564006500000055 2.1485480999999993 -0.7258491499999948
Zr 3.0011005500000003 0.08765029999999285 0.8503494500000031
Zr -2.552198349999994 -0.869548800000004 2.0919494500000013
Zr 0.20570185000000052 -0.13215250000000367 -0.1558493499999969
