14

Cu -0.5681953499999999 0.2872495999999991 -2.7676501499999997
Cu -0.20550165000000575 -2.182351099999998 -1.93345025
Zr -2.7495994500000016 -1.1539506999999993 -2.37825065
Cu 0.653102950000001 -1.0411499999999982 2.7676501499999997
Zr 2.7495994500000016 1.0643491999999988 -2.1081500500000008
Zr 2.4085044499999917 -1.4141492999999983 -1.3500504500000012
Cu 0.4288978499999949 2.120650300000001 -1.3823504500000006
Cu -0.8204002500000094 2.8003491999999994 1.1205496499999992
Cu -2.12949755 0.22754949999999852 1.463849549999999
Zr -0.8348961500000094 -2.3126497000000015 1.0374503500000003
Cu 1.84420394999999 -2.8003491999999994 1.2981496499999992
Cu -1.9756966500000068 0.7138491000000009 -0.69994975
Zr 1.4953040499999979 1.2559499999999986 1.1590495499999989
Cu 0.15189744999998922 -0.14795020000000036 -0.5062499500000008
