13

Zr -1.220300149999999 -2.540548300000001 -2.4165001000000004
Cu -2.546200249999999 -1.1568507999999973 -0.6051979000000003
Cu 1.518999550000001 -1.4509487000000014 0.21280300000000096
Zr 1.269899849999999 -0.7620486999999976 -2.4230994999999993
Cu -1.5407996499999994 0.6966495999999971 -2.1285973000000027
Zr -1.6154999499999994 2.4423503999999987 0.27710340000000855
Zr 1.8405995500000012 2.540548300000001 -1.2543983999999924
Zr -0.4176993499999986 -2.2315501999999974 1.9907035999999962
Cu 2.546200249999999 0.6841487999999991 0.2168998000000002
Cu 0.8039994500000001 2.3558483000000017 0.912502300000007
Zr -1.647900149999999 0.4143505000000012 2.307300599999998
Cu 0.8715996500000012 0.4135493999999973 2.4230994999999993
Cu -0.22599935000000126 -0.021051400000001053 -0.22159959999999757
