14

Zr 0.31659989999999993 -3.2413978499999985 -1.9832477500000003
Cu 1.6913996000000004 -0.26140205000000094 -2.0674495500000027
Cu 1.7072001000000014 -2.2524985499999985 -0.2376460499999986
Cu 2.6449002999999998 -0.07110215000000153 -0.09995075000000853
Zr -1.4655999999999985 -0.7265968499999929 -2.504449850000004
Zr -0.04819960000000023 1.726200150000011 -2.62195015
Cu -2.3979006 -1.451496149999997 -0.21005055000000894
Cu -2.6449002999999998 1.1652032500000047 -0.8756465500000026
Cu -0.5882004999999992 3.2413978499999985 -0.2694453500000016
Cu -1.1638002000000007 1.5850029500000034 1.746751849999992
Cu -0.909100500000001 -2.4146995499999946 2.1557483499999925
Zr 1.4140997000000013 -0.07600014999999871 2.62195015
Zr 1.7811994999999996 2.3857994500000075 0.2972507499999999
Zr -0.03659910000000011 -0.37700264999999433 0.18065074999999453
