13

Zr -0.6344528000000054 1.5499497000000062 -2.5160450999999995
Cu 1.6222458000000017 -0.5075531000000026 -2.4059248
Zr -1.382148700000002 -2.3333510999999945 0.6618347000000009
Zr 1.4564515 -2.5823516999999967 -0.39752480000000023
Cu -2.394851700000004 0.521347100000007 -1.1952553000000004
Cu -1.0739517000000092 -1.182548500000003 -2.7434348999999996
Zr -0.7711486999999977 2.4965515000000025 0.41243549999999995
Cu 2.394851700000004 0.24984740000000016 0.7371349
Cu 0.645446800000002 1.7682495000000031 2.7434348999999996
Cu -1.7860488999999973 0.2892533000000057 1.3330354000000009
Zr 2.0420455999999945 2.5823516999999967 -1.5603352
Zr 0.5344467000000037 -1.1651534999999953 2.2709350000000006
Cu 0.12024689999999794 -0.08125299999999669 -0.11641499999999905
