12

Cu -0.7681399 -2.8282509000000005 -1.9026984999999996
Cu -1.5797199000000002 -0.7890511000000018 -2.3143005000000016
Zr 2.4059199000000002 0.19635009999999653 -0.1245995000000022
Zr 0.9688801000000002 -2.5045509999999993 -0.1847992000000005
Cu 0.9884198999999998 -0.7864495000000034 -2.2045974999999984
Cu -0.2806202 1.8651503999999974 -1.9909973000000036
Cu 0.7644799999999994 1.0519484999999946 2.3143005000000016
Zr -0.8581300999999999 -1.7593499000000037 1.7789001000000013
Cu -2.4059199000000002 -0.011150400000005334 -0.4235001000000054
Zr 0.56854 2.8282509000000005 0.2035026000000002
Cu -1.7393399 1.4680480999999972 1.038101300000001
Cu 0.013430000000000053 0.4329490000000007 -0.4124985000000052
