17

Cu -1.6136989499999963 0.4741439499999984 -2.4615516000000035
Zr 0.5551013500000046 1.9925460500000014 -3.010948199999998
Cu -2.01049995 -1.3338546499999921 -0.06575009999999892
Cu -3.332899049999998 0.9563446500000055 -0.04264829999999975
Cu 0.43110085000000353 -0.9393539499999974 -2.584251400000003
Cu -0.8588009499999991 -2.9211502499999966 -0.8091507
Cu 2.4561023499999983 0.48054505000000347 -1.5580481999999982
Zr -2.0253010499999995 0.24634545000000685 2.5062485000000017
Cu -0.8826999499999992 -1.8927535499999948 1.9643516999999981
Cu 0.9793986500000038 -2.274551349999996 0.2524490999999962
Zr 3.332899049999998 -0.7051544499999949 0.458751699999997
Cu -1.9129009499999974 2.4178466500000013 -1.0935516000000014
Cu 2.033300350000001 2.569648749999999 -0.8864516999999985
Cu -1.6079006500000013 2.65114595 1.3896484999999963
Zr 1.1812991500000045 2.9211502499999966 1.4377517999999974
Zr 1.151601750000001 0.025947549999997932 3.010948199999998
Zr -0.14380075000000048 0.13654325000000256 0.04714970000000207
