13

Zr 1.5315242150000046 -2.7766494500000007 0.9610481500000034
Zr 0.30599231500000457 -1.7324523499999955 -1.7305488499999981
Cu 2.0810792150000026 -0.05355064999999826 1.1034507500000004
Zr -1.9759200149999927 -0.9385528500000007 -0.23205184999999773
Zr -2.0264190149999948 1.1940536500000078 -2.21974565
Cu -0.4590577849999917 -1.0480499499999993 2.1681480500000063
Cu 2.892622315000004 -0.037551849999992726 -1.1779518499999924
Zr 0.5068102150000087 1.5198516499999997 -2.6869468500000053
Zr 1.9096752150000071 2.6730499499999993 -0.1958503499999935
Cu -2.892622315000004 1.0814514499999959 1.639347050000005
Cu -0.9154189149999965 2.7766494500000007 0.3130531499999947
Zr 0.21805221500000727 1.7808532499999998 2.6869468500000053
Cu 0.0846622150000087 0.4105530499999972 0.2247505500000031
