11

Zr -1.345899600000001 -0.2492509500000013 -2.3672504500000002
Zr 0.3730984000000017 -1.58955045 2.3672504500000002
Cu 1.6046008999999994 -1.5950503500000002 -0.451147050000003
Cu -0.5866984999999989 -2.2304501500000002 -0.7115497500000032
Zr -2.2662010000000006 -0.7999501499999999 1.6696529499999997
Zr -0.33790020000000176 2.2304501500000002 -1.1608486499999984
Cu -2.7473010999999996 0.9283490499999987 -0.2912502500000045
Cu -0.8505993000000007 1.3655495499999981 1.9795513500000013
Zr 2.7473010999999996 0.3050494499999994 -1.6892490500000008
Zr 2.1611004000000005 0.6783489500000011 1.761251449999996
Cu -0.007501599999999442 -0.022350850000001365 0.2724514499999984
