12

Zr 0.7020988499999987 -2.6464004500000016 0.44719979999999815
Cu -2.1393013499999967 -1.6777038500000003 0.6875009999999993
Cu -0.8161049499999962 0.2778015500000066 -2.461199800000001
Zr 0.6570014500000099 -1.837898249999995 -2.4011993
Zr 0.8001975500000071 2.0104980500000096 -1.9876994999999997
Cu -2.800098349999999 0.4751969499999973 -0.6167993999999997
Zr -1.6353035500000033 2.6464004500000016 -0.3865995000000009
Zr 2.800098349999999 -0.36600494999999 0.039999899999999755
Zr -1.0887031500000006 0.8088989499999997 1.726799999999999
Cu 1.7210960499999999 -0.7855987499999912 2.461199800000001
Cu 1.7127952499999992 1.8488998500000093 1.0116014999999994
Cu 0.18960185000000251 0.17430115000000512 -0.2692002999999996
