10

Zr -0.2743987999999966 -0.6378994000000002 -2.888399100000001
Zr 2.1078987000000033 -1.9426003000000005 -0.8738995000000003
Cu -1.353500399999998 -2.1208991999999984 -0.8586024999999964
Zr -0.0041007999999997935 -2.889400499999999 1.4818974000000082
Zr -2.3204995000000004 0.41160009999999936 0.47459600000000535
Cu 1.2276001 1.2958011000000003 -1.655301999999999
Zr -0.36679839999999686 2.889400499999999 -0.13429829999999754
Zr 0.5650024000000009 0.5736006999999983 2.888399100000001
Zr 2.3204995000000004 0.9006996000000012 0.957597700000008
Cu 0.24980170000000257 -0.3057002999999998 -0.3048991000000001
