12

Zr 0.18984889999999943 -2.6879979000000027 -0.5966492000000017
Zr -1.3860501000000003 -2.9372004999999994 1.8876496000000031
Cu -2.86275 1.132802899999998 0.7138519000000016
Cu -1.9562502000000013 -1.0884990999999964 -0.15694810000000103
Cu -0.47655010000000253 -0.10009959999999651 -2.006149299999997
Zr 1.9833497999999974 -1.3966999999999992 -2.4403495999999976
Cu -1.3446511000000019 -0.23039830000000094 2.4403495999999976
Cu 2.86275 0.36890210000000323 0.5256499999999988
Cu 0.9707498999999995 0.7816027999999982 2.4390525999999966
Zr -0.5257501000000016 1.8620012999999993 -0.5285492000000005
Cu 1.5875483 2.9372004999999994 1.0353507999999962
Cu 0.3176489 -0.39129840000000016 0.0964507999999995
