14

Cu -0.7096353500000001 -2.5441493999999985 -1.5484543000000102
Zr 1.6845650500000007 -1.2448482999999975 -0.8349534000000105
Zr -0.6888347500000007 0.23314860000000337 -3.1374511
Cu -3.04886485 -0.7234516000000006 -1.5377503000000061
Cu 0.6795649500000005 2.191648599999997 -1.4450531000000026
Zr 0.7318653500000005 2.0928515999999995 1.0746459000000002
Zr -2.55959465 2.0823497999999994 -0.9871522000000041
Cu -1.4368348499999994 2.5441493999999985 2.3271483999999916
Cu 3.04886485 1.6993503000000025 0.13724509999999412
Cu 0.6098646499999996 -0.671850199999998 3.1374511
Zr -0.77093465 -2.310548800000003 1.7585448999999969
Cu -1.1969352500000001 0.27594960000000057 2.2399443999999917
Cu 2.1189646499999997 -0.2911510999999969 1.4348448999999945
Cu -0.2432351499999994 0.1716518000000029 -0.17964930000000123
