13
56.108435 56.108435 56.108435 cluster with center atom 7 from model modelfiles/600K_27620000.cgm.xyz
Cu	-2.7757	0.69735	-0.26735
Zr	-1.8679	-0.54145	-2.31485
Zr	-2.1562	-2.28685	0.47345
Cu	-0.1769	-1.67415	2.74265
Zr	-1.9522	0.31295	2.63005
Zr	-0.8506	2.42055	-1.82645
Cu	-0.1794	2.36425	1.64705
Cu	0.1365	-2.42055	-1.82405
Cu	2.5488	-0.61725	1.78915
Zr	1.1487	0.45265	-2.74265
Zr	2.5755	1.74725	0.09095
Zr	2.7757	-1.37975	-0.80895
Zr	0.0324	-0.01565	0.16925
