13

Zr 1.3857002999999999 0.5618648000000008 -3.044249500000001
Cu 0.6511001999999984 -2.6096448999999997 1.3456506999999984
Cu -1.2871016999999974 -1.7394348000000002 0.5894499
Cu 2.2141990999999983 -0.9056950000000001 0.7305498000000004
Zr 0.8199004999999993 -2.2420049 -1.482750900000001
Cu -1.4548987999999987 -0.26166440000000035 -2.009650299999999
Zr -2.8260001999999993 0.3988351999999993 0.1532487999999983
Zr 1.7042998999999988 2.3075455999999996 1.476550099999999
Zr -0.5527990999999979 2.6096448999999997 -1.4658499000000003
Cu 2.8260001999999993 1.0041751999999993 -0.729250900000002
Zr 0.9990996999999986 -0.22519489999999953 3.044249500000001
Cu -0.9710007000000012 1.1032552 1.968449699999999
Cu 0.3079987000000024 -0.07460499999999959 -0.3270502000000004
