15

Cu -1.2095499500000013 2.8757541300000042 -1.394901250000002
Cu -2.59165005 0.2878940300000039 -0.6473007500000012
Cu 0.6217498499999987 2.1444643300000052 -1.9659996500000023
Zr 2.59165005 1.469944230000003 -0.1221008500000007
Cu 2.015150050000001 -1.2437503299999975 0.7538986499999982
Zr 0.7067508500000006 -0.21464606999999347 -3.1226997500000007
Cu 1.7211494500000004 -2.8757541300000042 -0.5536002500000006
Cu 2.530149449999998 -1.1249530300000004 -1.5410002500000015
Cu -1.946549450000001 -0.9810473299999956 2.0221996499999992
Cu 1.1114501499999978 0.060014030000004936 2.6679992499999994
Cu -0.9722499500000001 0.7479441300000076 3.1226997500000007
Zr -0.2508505500000009 2.815424230000005 1.177299549999999
Zr -0.954648950000001 -2.4120471299999906 -1.4144000499999994
Zr 0.3345508499999976 -2.501951930000004 2.1898994500000004
Zr -0.11614995000000228 -0.125935769999991 0.040399549999998285
