13

Zr 1.1919021500000007 -2.9302025 -0.20384784999999894
Cu -0.8795012500000006 -2.050098400000003 -1.7241497499999987
Cu -1.635101350000003 -1.1414985999999985 0.8626499500000016
Zr -3.0924987500000007 -0.15369799999999856 -0.8083477499999994
Zr -0.5691985499999994 1.0432013999999938 -2.2996501500000015
Cu 1.8438988499999986 1.668697299999998 -1.4214496500000031
Cu 2.308799749999995 1.245296500000002 0.5916500499999948
Cu 3.0924987500000007 -1.4450035000000057 0.5625514499999973
Zr 0.049201950000000494 2.9302025 0.6598529499999977
Zr 2.408401549999997 -0.8748969999999971 -2.135847049999999
Zr 1.3115005500000017 -0.9714011999999954 2.2996501500000015
Zr -1.2435989500000026 1.312198599999995 1.858152350000001
Cu 0.3367996499999997 -0.2640038000000047 -0.35684775000000357
