14

Zr -1.590705849999999 -1.9486007999999977 -1.969148600000004
Cu 0.3931961500000014 -0.4389000000000003 -3.131750099999998
Cu 1.0599975499999985 -1.7957001000000012 -1.7524509000000066
Zr 2.2436981500000073 -2.6255989000000035 0.6581478999999959
Cu 2.6408996500000015 -0.3185005000000025 -0.5295505000000063
Zr -0.3172989500000014 2.972301499999997 0.7336483000000058
Cu 1.6801986500000012 2.071498899999998 -1.199251100000005
Cu -2.6408996500000015 -0.7576980000000013 0.07954980000000234
Zr 2.288200350000004 1.397499100000001 1.380453100000004
Cu -1.873702950000002 0.5498008999999975 1.900251500000003
Cu 0.001800550000005785 1.8694992000000035 3.106847800000004
Zr 0.38569645000000463 -0.765399900000002 3.131750099999998
Zr -0.7755050499999996 -2.972301499999997 0.6388530999999986
Zr 0.05949405000000496 0.08179860000000261 0.07984739999999846
