14

Cu -0.6389503999999988 -0.6853495000000027 -2.876199700000001
Zr -2.1958503999999976 1.304749499999998 -1.9796009000000012
Zr -0.6124496999999991 -2.416150100000001 -0.6299990999999991
Zr 1.7197493999999978 1.3452500999999994 -2.411901399999998
Cu -2.6064492 -1.2869501000000003 -2.0249004
Zr 2.0327491000000038 -1.7379502999999996 -1.7126026000000039
Cu -0.718551699999999 2.7189493000000002 -0.4039020000000022
Zr 1.9477499999999992 2.307249999999998 0.46269799999999606
Zr -2.5096512000000004 0.07635019999999848 0.7803973999999982
Cu 0.1782492999999974 1.1405498000000005 2.4405002999999965
Cu 0.33565140000000326 -2.7189493000000002 1.6623973999999961
Cu -1.244449699999997 -0.8029507999999996 2.876199700000001
Zr 2.6064492 -0.7743502000000024 1.1140995000000018
Cu 0.125148700000004 0.10134979999999949 -0.20369910000000147
