15

Zr -2.30390485 -2.191900150000002 -0.8629513000000006
Cu 0.6710253500000003 -2.4046001500000003 1.4256496000000016
Cu -1.4827346499999998 -0.7791003500000002 -2.5653495999999993
Cu 1.08549505 -2.042200049999998 -1.6044502000000005
Cu 0.5070648500000003 0.08310124999999857 -3.122249599999998
Cu -0.8596047499999995 1.9494991500000012 0.9474487000000007
Cu -1.4885448499999998 1.818700849999999 -1.5619506999999988
Cu -2.9329948499999996 1.0989017500000031 0.14064980000000027
Cu 2.9329948499999996 -0.3509997499999997 -1.569950099999998
Zr 1.6219949500000008 2.4046001500000003 -1.5082511000000007
Cu -2.2441949499999994 -1.1461009499999975 1.8472500000000007
Cu 1.8518953500000008 -0.7311992500000031 2.4763488999999996
Cu -0.5749949499999993 -0.8072986499999999 3.122249599999998
Zr 1.8745947500000013 2.251298949999999 1.5579491
Zr 0.3344955500000011 0.21330075000000193 -0.014949799999998348
