15

Zr -2.162302050000001 -0.6191006000000012 -1.4877304500000008
Cu -2.782400150000001 0.7441996999999976 0.9987702499999997
Cu -2.5603008499999973 -1.6431999000000008 1.811870149999999
Cu 0.8104000499999984 -0.9125996000000018 -1.669829850000001
Cu -1.4950008499999967 -2.8579998 -0.14182994999999998
Cu 0.5668011499999963 -2.619699500000001 -0.05713035000000133
Cu 2.782400150000001 0.5303000999999998 -0.14882994999999966
Cu -0.21450235000000362 -1.661600100000003 2.3119703499999993
Zr 0.02889824999999746 2.8579998 2.2558703500000004
Cu -1.9722003500000014 2.5373000999999977 0.3185696499999988
Cu 0.24970055000000002 2.8491000999999994 -0.5015301500000007
Cu 0.5725995499999996 1.5475005999999976 -2.7716698500000003
Cu 2.132101050000003 -0.5689010999999997 2.21976995
Cu -1.4196986500000008 0.7411994999999987 2.7716698500000003
Zr 0.05050084999999882 0.34449959999999713 0.6842704499999996
