15

Cu -0.5194654500000002 0.12875165000000344 -2.652049999999999
Cu -0.54956535 -2.154050849999999 -2.314449200000002
Cu 2.2347345500000007 0.2666492499999986 -1.5796489999999999
Zr 2.1787347500000003 -2.197250349999999 -0.9330502000000003
Zr -2.6890354500000004 1.6715487500000048 -0.7998484999999995
Cu 0.20983514999999997 2.2980517500000044 -2.0957489000000002
Zr -2.16271495 -2.275850349999997 -0.37644960000000083
Cu -0.7970646499999994 2.745050449999999 0.9471512000000004
Cu -0.16026495000000018 -2.745050449999999 1.2231503000000004
Zr -1.86387545 0.2835521500000038 2.300149900000001
Cu 1.136534750000001 -1.3393497499999985 2.253749899999999
Cu 2.6890354500000004 0.34905045000000534 1.1382504000000004
Cu 0.9292345500000003 1.6152514500000006 2.652049999999999
Cu 1.118234750000001 2.351751250000005 0.4554501000000002
Zr -0.10936545000000031 -0.10655024999999974 0.046150199999999586
