13

Zr -1.434016965000005 -1.4428483000000014 -1.844350900000002
Zr 1.2174876349999906 -2.157451700000003 -2.312349300000001
Cu 1.790783134999991 0.20994950000000046 -2.467550299999999
Cu -0.5368153650000025 0.9444502999999997 -2.270250400000002
Zr 1.633686334999986 2.5414504999999963 -0.6348515000000035
Cu -2.496417765000011 -1.0967484000000027 0.36585039999999935
Cu -0.3154178650000077 -0.12054830000000294 2.467550299999999
Zr -0.3001134650000026 -2.7509498000000008 0.7318515999999988
Zr 2.652316764999995 -0.4355507000000003 0.23575019999999824
Zr 0.6541865349999867 2.7509498000000008 2.061448999999996
Zr -2.652316765000002 1.129951399999996 -0.911851900000002
Cu -1.4873158650000065 1.7965506999999974 1.424848499999996
Cu 0.18498633499999784 0.2581519999999955 0.05534929999999605
