13

Cu -1.2406997500000028 -1.2111000500000006 2.4043464499999985
Cu 0.3344001500000022 1.8656001499999988 2.2742111900000026
Cu -1.8968009499999976 -0.28410005000000105 -2.4043464499999985
Cu -1.2023010500000009 -1.92550035 -0.6869468500000053
Zr -2.8712997500000004 0.50359965 0.21345145000000088
Cu 0.34529874999999954 0.1863999500000002 -1.610752049999995
Zr 2.8712997500000004 -0.356299850000001 -0.9901466499999927
Zr 0.6313018500000016 -2.41190005 0.8096504499999995
Cu 2.3531989500000012 0.27229934999999905 1.8519477500000008
Zr -1.0489005499999973 2.41190005 -1.1499519499999948
Cu -1.5799980499999986 2.411300149999999 1.4535484500000067
Zr 1.6972999499999961 2.32410005 0.05025105000000707
Cu -0.30350115000000066 0.2729992499999998 0.40385055000000847
