15

Zr -2.1349525000000042 -0.5226516500000038 -2.832050350000003
Zr 0.7221489000000005 0.3406486500000021 -2.492351549999995
Cu 2.6266517999999976 0.9950484500000023 -1.043849949999995
Zr -0.9355507000000003 -2.952751150000001 0.21215435000000582
Zr 0.9861488000000023 -1.8076515499999992 2.0704536500000046
Cu -1.7941475000000011 2.1512489499999994 -1.5956458499999968
Cu -2.074550699999996 -0.5782508499999999 2.7230491499999943
Zr -2.6266517999999976 -0.17425154999999748 0.267353049999997
Zr -0.016651200000005417 1.6509475500000015 2.832050350000003
Cu -0.3620491000000001 -2.4192505499999974 -2.245647450000007
Cu 1.874752100000002 -1.615249649999999 -0.6433524499999947
Cu 0.5402489000000017 2.4074477499999993 -1.0638465499999938
Cu 1.7388496000000018 0.9795493500000028 0.9351539500000001
Zr -1.9301491000000013 2.952751150000001 0.9288520500000033
Cu -0.25494769999999534 0.302848749999999 -0.04584884999999872
