12

Zr -2.83710095 -0.9940489999999969 -0.4128280300000071
Cu -1.0020027499999955 -0.7709503000000026 2.1300519699999967
Cu -1.6083031499999905 1.674251599999998 -0.9892984300000052
Zr 2.83710095 0.4194490000000002 -1.1975780300000025
Zr -1.7696037499999946 1.6151504999999986 1.4698017699999966
Cu 2.368099149999999 -0.11944960000000293 1.0666817699999953
Cu 0.8295020500000092 2.298850999999999 -0.1270280300000053
Zr 1.2587012500000085 1.6601485999999994 2.7597922699999984
Zr 1.3521003500000077 -2.298850999999999 -2.0219381300000023
Cu -1.1017036499999975 -0.8222503000000003 -2.398218230000005
Cu 0.4526023499999994 1.1532516999999984 -2.7597922700000055
Cu -0.00590134999999492 0.06824879999999922 -0.055188230000005944
