15

Zr -0.6467504500000025 -0.5026506499999996 -3.1187993000000027
Cu -0.8761511500000019 -2.929950249999999 -0.8608989999999999
Cu 1.3449487500000004 -2.7235502500000006 -0.9617024000000036
Cu 1.8580484499999983 -2.1704506499999994 -3.1392994000000023
Cu -1.5313501500000015 2.80055005 -0.058302000000001186
Zr 1.7147493499999982 1.7244487499999988 -1.0944996000000025
Zr 2.1260499499999987 0.2548489499999995 1.4179972999999997
Cu 2.67175005 -0.7660507499999998 -1.5422000999999987
Cu -0.008851050000000527 -0.7678503499999998 3.1392994000000023
Cu -1.89625075 -1.6240505499999998 1.8241976999999956
Zr 0.6118497499999975 -2.628950549999999 1.5452976000000014
Zr -2.67175005 -0.045550750000000306 -0.2017994000000023
Cu -0.9342508500000015 0.6969495499999994 1.596200899999996
Cu 0.5240487499999986 2.929950249999999 1.0832996000000001
Cu 0.08574965000000034 -0.32445094999999924 -0.5188999000000045
