14

Cu 1.5457260149999996 -0.8559552000000039 -2.4392013500000047
Cu -0.2872519849999975 -2.4249516 -1.625598850000003
Cu -1.5123269850000014 -0.7469539999999952 -2.4342002500000035
Cu -1.9150139850000016 1.687745999999997 -2.656101249999999
Zr 2.264446014999997 1.7596454000000037 -2.4976005500000014
Cu 2.9801459150000014 0.8397464000000028 -0.2744979500000042
Cu -1.2268649849999989 -2.574251199999999 0.8857002499999993
Zr -0.7336689850000013 1.6737460000000013 2.656101249999999
Zr 1.7620060149999972 -2.3034496999999945 0.02349854999999934
Cu -2.633145814999999 -1.6278514999999985 -0.48799895000000504
Cu -2.9801459150000014 0.8180484000000021 0.20669935000000095
Cu 0.4200461149999981 -1.0390530000000027 2.179302249999999
Cu 1.1469560150000007 2.574251199999999 0.28739935000000116
Zr -0.2264819849999995 0.21374700000000502 -0.3200988500000008
