14

Cu 0.8888978999999999 -2.0994510999999996 -1.1562004500000018
Zr -0.9963999000000001 -1.209348699999996 -2.8386001499999995
Cu 0.6706991000000002 0.7869509999999984 -1.764101049999999
Zr -0.3380003000000009 2.646650300000001 -0.41310124999999864
Cu 3.0662011999999983 -1.022249299999995 -0.49250035000000203
Cu -2.6027002999999986 -2.1815509999999954 -0.3952998499999989
Cu -0.7920999999999978 -2.646650300000001 2.6420993500000005
Cu -3.0662011999999983 -0.02404979999999668 0.1686992500000013
Cu -2.8538007999999984 -1.8255519999999983 1.7967986500000013
Cu 0.7328003999999986 -0.0014514999999981626 2.8386001499999995
Cu -1.4621001000000007 1.2842503 1.6847991499999981
Zr 2.2227982999999973 1.4934481999999996 1.1532001499999982
Zr 2.3645981999999997 -1.996950199999997 2.043199549999999
Zr -0.34700109999999995 -0.5820522999999973 0.37829965000000065
