13

Zr -2.6307001000000003 -0.6498508499999964 1.2405764700000006
Zr 1.2212000000000014 -1.8192501499999985 1.2570764700000012
Cu -0.8246011999999983 1.2563495499999995 2.206646169999999
Cu -0.7587004000000004 -0.971250549999997 3.2452461700000015
Zr 2.1011991000000005 1.234949150000002 1.2902061699999976
Cu -0.9035998000000003 -2.9952487499999982 0.4968163699999977
Zr -1.1740999999999975 -1.49645035 -2.0874473700000067
Cu 2.6307001000000003 -0.8493480499999997 -0.6019432700000067
Cu -0.38729949999999924 1.0187511500000035 -3.2452461700000015
Cu -2.409501099999998 1.103750250000001 -0.8141471699999983
Zr -0.27390010000000053 2.9952487499999982 -0.3023445700000025
Cu 1.5078001000000025 1.134450950000005 -1.822646370000001
Cu -0.31120009999999887 0.13055225000000448 -0.17064597000000958
