13

Zr -0.6203499500000014 -0.30285075000000017 -2.453350050000001
Cu 1.4470519499999988 -2.164550749999999 -0.5881500499999994
Zr 2.4318504500000024 1.2022495500000003 -0.26734924999999876
Cu -0.553749149999998 2.3869495499999998 -1.4372520500000014
Zr -1.0482482499999968 -2.9892501499999993 -1.2175522500000007
Cu -2.3127479499999986 -0.6391506499999986 -0.19055164999999974
Zr -0.9561500500000015 1.0948495500000002 2.453350050000001
Zr -1.9361495499999997 -1.5642499499999998 2.194850849999998
Cu 0.046951250000002887 -2.9898500500000003 1.4400482500000003
Cu 1.1880492500000024 -1.0663499500000002 1.8409499499999988
Zr -2.4318504500000024 2.4675493500000014 0.20304865000000305
Cu 0.84654995 2.9898500500000003 0.5561485499999996
Cu 0.02585225000000335 0.22424985000000053 -0.0886497499999983
