15

Zr -2.8214988999999946 -1.2613000499999991 1.475741119999995
Zr -0.43890000000000384 -2.8156995499999997 0.3775213199999996
Cu 1.4251976000000042 -2.54629995 -1.5528719200000083
Cu -0.7627983 1.35160065 3.045631119999996
Cu 2.8214988999999946 -0.2881994499999987 1.9357111200000006
Zr 0.5645027000000056 -1.0306997500000001 3.1126711200000017
Cu -2.5045967000000076 1.9844999500000018 1.6224515199999985
Cu 0.1609993000000003 2.52640055 1.6347215199999994
Cu -1.1319007999999968 2.8156995499999997 -0.43342877999999985
Cu -1.031002099999995 1.1487999500000008 -2.261368019999999
Zr 1.8850975000000005 2.601700850000002 -0.7097704200000052
Cu 2.576297799999992 0.0789003500000014 -1.1783678199999983
Cu -0.9761009000000058 -1.307899449999999 -1.9657671200000024
Cu 1.1169014000000033 0.7754001500000012 -3.112671120000009
Zr 0.2655982999999935 0.13560015000000014 0.18004151999999607
