13

Cu 0.7770957500000009 -0.7283000999999985 -2.8084953
Cu -0.7407035499999921 -2.7202015000000017 0.00349500000000047
Cu 2.4507025500000026 -0.9993991999999992 -1.2190154000000004
Zr 1.688396350000005 1.9092997999999994 -2.2878253
Cu -1.3869972499999932 -1.313299199999996 1.5949953000000003
Cu 2.6425971500000003 0.6611996000000033 0.769695
Zr 1.4783972500000004 -1.7520999999999987 1.6966951000000008
Cu -2.6425971500000003 0.5986004000000023 0.3538948999999998
Cu -0.7337989499999935 2.174799 -0.8451349999999995
Cu -0.8334007499999956 0.5038014000000004 2.5983951000000007
Cu 1.3155020500000063 1.3813992000000042 2.8084953
Cu 1.2700004499999977 2.7202015000000017 0.2373950000000007
Zr 0.531696249999996 -0.14010040000000146 -0.055404800000000254
