13

Cu -0.16801854999999977 -1.82948975 -2.040103849999994
Cu -1.12815845 0.8335298500000001 -2.60480115
Zr -2.6654415499999997 -0.7328596499999995 -1.0710029499999933
Cu -0.93652845 -3.2499298499999996 0.6208000499999997
Cu 2.0528512500000002 -1.5434799499999996 -0.8022041499999943
Cu 1.2192514500000002 0.9266304499999998 -1.5384024499999924
Cu -0.011688649999999967 3.2499298499999996 1.2445946499999962
Cu -0.2603384499999999 -1.7997699499999995 2.60480115
Cu 2.66544155 -0.84416965 1.4607963500000096
Zr 2.6305113500000004 1.8068403500000003 1.2159996500000005
Cu -2.4759842499999998 0.5570997500000012 1.976398450000005
Cu -0.33413855000000003 1.4523500500000002 2.494800550000008
Zr 0.04757155000000024 -0.29426964999999994 0.4734993499999973
