14

Cu -2.8851508999999993 1.056251500000002 1.2323494499999939
Cu 0.2519492999999926 -0.16135409999999695 -2.51774975
Cu -1.1097527000000014 -2.6098479999999995 -0.9932441500000024
Cu 0.8516501999999946 -2.636650099999997 0.16205215000000095
Cu 0.20115279999998847 2.2424469000000045 -1.4074516500000058
Zr 2.8851508999999993 0.6166458000000006 -1.8460502499999976
Zr -1.9828530000000057 0.8157501000000025 -1.4819450500000002
Cu -0.5007515000000069 1.9439469000000003 0.7296485500000003
Cu 1.968448599999988 2.636650099999997 0.02534865000000508
Cu -1.0102501000000075 0.6550522000000001 2.51774975
Cu 2.6884498000000008 -1.2402495999999985 0.24065015000000045
Zr -1.6641503000000029 -1.9079514000000017 1.9126548500000027
Zr 1.663547599999987 0.6132507000000089 1.8167533500000062
Cu 0.15755079999999566 -0.161651599999999 -0.17004775000000194
