15

Cu -0.9945489000000016 0.998699199999999 -2.597220450000001
Cu 1.4817503999999992 -1.3244009000000005 -2.60575005
Cu 2.7378502000000005 0.7771996999999988 -2.1055002499999995
Zr -0.23395160000000104 -2.840700100000001 -1.4617099500000004
Cu -1.2350501999999999 -2.1092005 0.8362503499999994
Cu 2.365749299999994 -0.8530007000000008 -0.28845024999999946
Cu 1.0421484999999997 -2.0768003999999998 1.4801502500000003
Cu -2.6902504 0.12449930000000009 -0.9496497499999998
Cu -2.1831513000000022 2.6325987999999985 -1.1686200500000004
Cu -0.6063500000000026 2.840700100000001 0.6126499499999989
Cu -2.7378502000000005 1.7840995999999993 1.2327499499999997
Cu -1.1554490000000008 -0.0591001999999996 2.4924497499999996
Zr 1.440448699999994 0.5524997000000003 2.60575005
Zr 1.751949199999995 2.4220999999999986 -0.5302495499999997
Zr -0.007148799999999511 -0.15370090000000047 -0.12814995000000007
