16

Zr -2.0546394999999995 -2.2982001499999987 -0.32240669999999483
Zr -2.1518995 0.13470125 -2.918300600000002
Cu 0.9387300999999999 -2.9123997499999996 -0.3385047999999884
Cu 0.4548405000000004 -1.5880999499999993 -2.0955008999999976
Cu 2.6198299 -0.4104990500000012 -1.6504019999999926
Cu 0.8449400000000002 0.7990002499999997 -2.271304999999991
Cu -2.4685895 1.7146000499999987 -0.5894049999999922
Cu -1.0687897 2.5288014500000005 1.1388970000000072
Zr -0.9446699000000001 2.9123997499999996 -2.6963996999999935
Cu 1.2150904999999996 2.8023000500000004 -0.4590033999999932
Zr -2.6198299 0.7112012499999993 2.2458992000000038
Cu -0.29707929999999916 -1.3541998499999996 1.7277948000000052
Zr 2.2142302999999997 -0.22119854999999955 1.1118965000000074
Cu -0.08634970000000042 0.500700450000001 2.918300600000002
Cu 1.5805300000000004 2.0806012500000017 2.176097900000009
Zr -0.25072969999999994 0.38120125000000105 -0.10490039999999823
