14

Cu -0.40244674999999575 -2.759950650000004 -2.0272007000000016
Cu 1.1251487500000081 0.0700473499999994 -2.050100299999997
Zr -2.666652650000003 -2.040052450000001 -0.9647998000000015
Cu -1.1144523499999934 1.7859516499999906 -1.5188007
Cu -1.6674460499999952 -0.1873531500000034 -2.6234989000000013
Cu -2.3889503500000018 0.10965154999999882 0.27390100000000217
Zr 2.237850250000008 -2.2204494500000003 -0.7269000999999946
Cu 0.9484520500000002 -2.7691516500000013 1.7105007000000043
Zr -1.2133521500000057 -0.816747650000007 2.6234989000000013
Cu 1.606449150000003 0.25245095000000006 1.6278019000000015
Cu 2.666652650000003 1.2727527499999987 -0.30309859999999844
Cu -1.4783515499999993 2.4373493499999945 1.057001200000002
Cu 0.8688469500000053 2.7691516500000013 0.42030150000000077
Zr -0.26285174999999583 -0.647848149999998 -0.22450059999999894
