13

Cu -2.233650250000011 1.5241955800000042 -0.407598550000003
Zr -2.254852249999999 -2.017174319999995 -0.6653995500000036
Zr -2.0491485500000124 0.01774538000000092 1.593702350000001
Zr 2.254852249999999 0.8766856800000014 -1.343599349999998
Cu 1.618850749999993 -2.0216346200000004 -1.563200049999999
Cu -0.43755335000000173 -0.34493451999999536 -2.373800250000002
Zr 2.0281524499999932 -0.12178472000000085 1.6598987499999964
Cu 0.4856491500000004 2.0832852799999984 -0.17149925000000366
Cu -1.5886535500000036 -2.8414058799999964 1.5267009499999986
Cu 0.27845004999998935 -2.5472088799999995 0.15279964999999862
Cu -0.3271484500000099 1.4264554800000013 2.373800250000002
Cu 1.525947549999998 2.8414058800000035 1.4699001500000008
Cu -0.05644995000000108 0.02763548000000071 0.09480094999999977
