15

Zr 0.5419483999999954 -2.767499899999997 -1.2238502999999952
Zr -1.9909534000000022 -1.3861981000000014 -2.8899497999999966
Cu -1.1649531999999994 2.767499899999997 0.01234820000000525
Zr -2.8419513999999992 1.3250026999999989 -1.3594551000000052
Cu -1.6750507 1.006399100000003 2.060451499999999
Cu -2.0974521999999993 -2.4521007999999966 -0.37465290000000095
Cu 0.8576449999999909 0.4410000000000025 -2.6353493000000014
Cu 1.4163455999999996 -0.20789909999999878 2.8899497999999966
Zr -1.0317516000000069 -1.6079006000000007 2.2745476000000053
Cu -0.028051399999995397 2.1769008999999997 -1.9784508000000045
Zr 1.7315463999999992 2.0165004999999994 0.07165140000000747
Cu 1.3032474999999977 -2.082098000000002 1.2613488000000075
Cu 2.8419513999999992 -0.5376988000000011 -0.3023491000000007
Cu 0.06174659999999221 2.4724026000000023 2.1960488
Zr -0.30914880000000267 -0.2077007999999978 -0.30604939999999203
