14

Cu -2.5056018999999985 -0.7799491999999972 0.07425299999999879
Cu 1.197298 -2.1461525000000066 0.3434524000000039
Zr -1.1504993999999975 -2.7914467000000016 -1.1125489000000002
Cu -1.384599699999999 -3.094547299999995 1.692752800000001
Zr 2.5319004000000014 -0.7373466000000022 2.1516494000000037
Cu -2.5319004000000014 0.1525535999999974 2.3389511000000027
Zr 1.0610980999999988 1.1386527999999956 -0.7400474999999958
Cu -1.8738003000000027 1.237850200000004 -0.619747199999999
Zr -0.9181004000000037 0.04155349999999913 -2.7038498000000004
Cu -0.5932026000000015 3.094547299999995 -0.0013502999999985832
Zr -0.6321011000000034 1.705051399999995 2.6454506000000038
Cu 1.7059992999999984 2.1411476000000036 2.080650300000002
Cu -0.39800070000000076 -1.1713523999999964 2.7038498000000004
Cu -0.11919980000000052 -0.519748700000001 0.605152099999998
