13

Cu 1.66790009999999 -1.7204990999999978 -2.0237999000000038
Cu 0.20099649999999514 -2.2992992 -0.16799930000000174
Zr 2.687896700000003 -2.3976001999999994 0.6486015000000016
Cu 2.666999799999992 0.3840008000000026 -0.1630974000000016
Cu -1.301597600000001 -1.4832019999999986 -2.035400400000004
Cu -0.5115967000000055 1.2257976 2.2657013
Zr -2.687896700000003 1.0071010999999999 -0.37359989999999854
Zr -0.1660995000000085 1.175798399999998 -2.283500700000001
Cu -0.018600400000003958 2.3976001999999994 0.4943009000000025
Zr -1.8921965999999983 -1.5277004000000005 1.764900199999996
Cu 0.526596099999999 -1.9853991999999963 2.283500700000001
Zr 1.8806992000000022 0.4426975000000013 2.0876999000000005
Cu 0.018997199999994052 0.02199740000000361 0.06710049999999868
