14

Cu -0.03075024999999698 1.3673506 -3.149250000000002
Cu 1.273952449999996 -1.1493501000000013 -2.3284493000000097
Cu -0.5510520499999956 -2.8038492 -0.43185040000000896
Cu 0.5249519500000019 -1.5644502000000013 1.8409461999999976
Zr -1.4465446499999928 -0.41314969999999995 -1.9614525
Cu -2.7231483500000024 1.0682497000000009 0.3393517000000017
Zr -2.257846849999993 -1.2097502000000002 1.375148799999998
Cu -0.8923454499999934 2.113150599999999 1.374851200000002
Zr 2.4454536500000046 -1.4022492999999994 0.02754589999999979
Zr 2.7231483500000024 1.5295496999999987 -2.1604500000000044
Zr 1.8536491499999954 2.1570501999999987 0.655948599999995
Zr -0.7240486500000003 2.8038492 -1.1508522000000099
Cu 1.0804481499999952 0.9248494999999988 3.149250000000002
Cu 0.12234875000000045 0.17635060000000102 -0.17815019999999748
