12

Cu -0.11740020000000051 0.14125064999999992 -2.499250449999998
Zr 1.7496004000000003 0.7845496499999989 -0.6392497499999976
Zr -1.8855008999999985 -1.97095105 -2.191652249999997
Cu 0.5913991999999997 -2.94824985 -1.1326503499999987
Cu -2.5313996999999997 -0.38965225000000103 1.6594486500000016
Cu -2.2843999999999998 0.8564491499999995 -0.8523502500000006
Zr 0.5644006999999984 1.4069480500000004 2.107351350000002
Zr -0.5992002000000003 2.94824985 -0.4573497499999988
Zr 2.5313996999999997 -2.1163520499999997 0.6463489499999966
Zr -0.2533006000000011 -1.558151249999998 2.499250449999998
Cu -1.6750002000000013 -2.652050049999996 0.5764484500000009
Cu -0.3942002999999996 -0.2288513499999958 -0.04055215000000345
