14

Cu -1.150152299999995 0.08178000000000019 2.3401353699999987
Zr -2.6517505999999997 -0.8585700999999997 0.08811556999999937
Zr 1.3966503000000046 -1.6878199 2.577885370000004
Cu 2.512647600000001 -0.1900296000000008 0.05136536999999919
Cu 0.1286486999999994 2.3435702999999997 -0.9831893700000052
Cu -0.8765506999999957 2.4913697 1.9026853700000004
Cu 1.274450200000004 0.9586004999999993 2.379895470000001
Zr 2.6517505999999997 2.4144702000000002 0.45121547000000106
Cu -0.7261524999999978 -2.4913697 0.6680352699999972
Zr 0.8549480000000003 -1.5489197 -1.8046842699999956
Zr -2.5591507999999976 2.4314704000000003 -0.49188687000000186
Cu -1.288450300000001 0.41085009999999933 -2.310887070000007
Zr 2.0006503000000038 1.1427703000000005 -2.577885370000004
Cu 0.04924960000000311 -0.09221029999999963 0.027575570000003324
