15

Cu -1.3242034999999959 0.04451510000000036 -2.8263497500000003
Cu 1.818000699999999 0.8590149000000005 -2.1470493499999996
Cu 0.7627944000000042 -1.2144650999999995 -2.8338494500000007
Zr -0.22260289999999827 2.5537348000000004 -2.4041495499999996
Zr -2.770401100000001 -1.7352652999999996 -0.811049950000001
Cu -2.7797012999999993 -1.1471252999999995 1.6755509499999999
Cu -0.22050469999999223 1.9128646999999996 1.2722497499999985
Cu 2.644897400000005 0.4417949000000001 1.5361504499999992
Zr -0.5631027999999958 0.10382510000000034 2.8338494500000007
Cu -2.2200012999999927 1.6011047 -0.18924945000000015
Cu -0.05799869999999885 -2.8335953000000003 -0.5748495499999997
Zr 1.231895399999999 -2.4754051999999995 2.0909505500000005
Zr 2.7797012999999993 -1.3560051999999998 -0.82494975
Zr 1.8308944999999994 2.8335953000000003 0.05975014999999928
Zr -0.20040129999999579 -0.09163529999999964 -0.22934955000000024
