12

Cu 0.5594482499999991 -0.6574477999999999 -2.497749349999996
Zr 0.415950849999998 -2.6204490000000007 -0.3179511500000025
Cu -1.433750149999998 -0.9858474999999984 -1.6132507500000024
Zr 2.6329499500000004 -0.5297470000000004 -0.6671485499999967
Cu 0.148048450000001 1.8378524000000027 -2.59154895
Cu -1.927749649999999 1.4801521999999991 -0.3198509499999993
Zr -2.9744491500000017 -0.7911491999999996 0.7391510500000003
Cu 0.7515487500000013 -1.407047300000002 2.1018485500000033
Zr -0.8622512500000035 0.5397529000000034 2.59154895
Cu 0.3691482499999985 2.5207480999999987 0.19155124999999984
Zr 2.9744491500000017 2.6204490000000007 0.8728523499999987
Cu 0.42245104999999583 0.37905119999999926 0.04864885000000285
