15

Zr -0.6439971999999976 -2.775501249999998 -0.7520999499999981
Zr 1.5704002000000052 -1.8758010499999997 -2.007600749999998
Cu -2.135498099999996 1.4473991500000025 -1.7987003499999936
Cu 0.7010001999999993 1.4920997500000013 -2.1200008500000003
Cu -2.7495994999999986 -0.7026977499999987 0.17450155000000578
Cu -2.4940986999999986 1.237998949999998 1.8891010500000043
Zr -1.4696998999999984 -1.0788002500000005 2.3561992500000066
Cu -1.3302993999999977 -0.6712990500000018 -2.6172008499999997
Cu 2.7495994999999986 0.45669935000000095 -0.9055996499999956
Cu 2.1883011000000003 0.08739855000000318 1.4791011500000018
Cu 0.5320015000000033 -2.3203010499999976 1.5571994500000024
Zr -1.309497799999999 2.775501249999998 0.1225987500000052
Cu 1.5764008000000054 2.6790008500000013 0.41789815000000274
Zr 0.3516998000000022 1.9584007500000027 2.6172008499999997
Zr -0.05539709999999687 0.11090095000000133 -0.1848010499999937
