14

Zr -1.440099649999997 1.0134000499999978 -2.4345512000000014
Cu 0.6682988500000029 2.8191995500000004 -0.9274483000000089
Cu 1.5212993500000032 -2.8191995500000004 -0.5266457000000031
Cu -2.7311000499999984 -0.3492994500000002 0.4819526999999937
Cu -0.7552013499999966 0.11710074999999875 2.2652549999999962
Cu -2.2170009500000027 -1.3420992500000004 -1.5293465000000026
Cu 1.7145978500000005 -1.2667990499999995 1.4719504999999913
Cu 0.197298049999997 -1.4184008500000012 -1.7531471000000067
Cu -0.53320115 -1.8471002500000004 0.4833488000000017
Zr 2.7311000499999984 0.4742002499999991 -0.6111488000000094
Zr -2.1865023500000014 2.437699249999998 0.42665479999999434
Cu 1.9302005499999986 0.6873998499999985 2.4345512000000014
Zr -0.024499850000001544 2.460000049999998 2.0784491999999943
Cu -0.014299349999998157 0.4070997500000004 -0.11275100000000293
