13

Zr -2.544300100000001 -1.3183516499999968 -1.4659995500000012
Zr -0.07989889999999633 -2.7719497500000045 -0.4986990500000008
Cu 2.4790993000000014 -1.6446533499999987 -0.4853000500000011
Cu -2.638099699999998 1.6284484499999934 -2.4386997499999996
Cu -2.669899000000001 1.0334472499999947 -0.21700095000000097
Zr 0.2975998000000004 2.668350349999997 -2.422300350000002
Cu 2.235301900000003 -0.12025454999999852 -2.0125999500000002
Cu 0.7494011 -1.1966552500000063 1.4978009500000002
Cu 0.6544990000000013 2.7719497500000045 0.3166008499999986
Cu -1.3036995000000005 -0.662750250000002 1.1809006499999999
Zr 0.39319989999999905 1.0801467499999973 2.4386997499999996
Zr 2.669899000000001 0.830848649999993 0.6923999499999969
Zr -0.04520039999999881 0.30254365000000405 -0.7129001500000012
