12

Cu -0.7069988999999985 -3.1903495999999993 -0.5676497999999981
Zr 2.033998499999999 -2.4332504000000004 0.7358513000000002
Cu -2.3632984000000015 -1.0536499 -1.8011513000000008
Zr 0.33090019999999853 -1.2204504000000007 -3.002048500000001
Zr -1.353998200000003 1.4760495000000002 -2.1334495999999987
Cu 1.2324999999999982 1.6213494000000015 -1.2967490999999995
Cu 2.3072985999999993 -0.2588500999999983 -0.8612480000000033
Cu -0.9921017000000028 3.1903495999999993 -0.2137488999999988
Cu -0.34259989999999974 -0.4048499999999997 3.002048500000001
Cu 2.3632984000000015 1.1775493999999984 1.0352516000000023
Cu 0.2806986999999985 1.7838496999999993 2.3620491
Zr -0.2731991000000029 -0.11375039999999892 0.35375210000000124
