13

Cu 0.8009453499999921 -2.5821495 0.5596007999999983
Cu -2.3149528499999974 -0.730850199999999 -0.5190010000000029
Cu -1.7869529499999999 1.8032493999999986 -1.1930008
Zr -0.43635175000000004 0.030651100000000042 -2.750900299999998
Cu -0.5501517499999977 -2.6675491000000022 -1.5531006000000005
Zr -2.430950150000001 1.1401481999999987 1.3418999000000014
Cu 1.0113487499999962 1.8660507000000024 -1.544300100000001
Cu -0.31745525000000896 2.6675491000000022 0.7495003000000011
Zr 2.305149149999991 -1.0710486999999986 -1.486702000000001
Zr 2.430950150000001 1.4551506000000032 0.9800988000000004
Cu 1.6235466499999944 -0.5772514000000015 2.3591003000000015
Zr -0.6334495500000088 -1.7750510999999989 2.750900299999998
Cu -0.042255249999996636 -0.04745100000000235 -0.0014000000000038426
