13

Cu -1.200788265000007 0.0741004500000102 -2.6187005
Cu 0.5702155349999956 -1.6024970499999895 -2.4412008
Zr 1.731134664999999 -0.9810981500000011 2.6187005
Cu 0.680612834999998 -2.384601549999992 0.01619960000000109
Cu -0.843984264999996 -1.9081001499999886 2.474600400000001
Zr -1.5109841650000035 -2.444499950000001 -1.0170006999999996
Zr -2.5043847650000046 -0.1397971499999997 -0.2613006000000011
Cu 2.5043847650000046 0.15690245000001113 0.4630990000000006
Zr 1.255815835 2.3036994500000034 -1.5745005999999995
Cu -1.4098870649999995 2.444499950000001 -0.2484011999999991
Zr 0.1632102350000011 1.7280006500000056 2.1073002999999995
Cu -2.445584965000002 1.1970024500000065 2.4349999999999996
Cu 0.056413935000001914 0.20589825000001127 0.1558003000000001
