14

Cu -2.2922973500000055 1.1371002500000031 -2.3474998499999984
Zr -0.6906967500000079 -1.073501549999996 -2.104499749999995
Zr -2.227096550000006 -0.6849021499999992 2.5585975500000018
Cu 1.9337997499999986 -0.7537994500000025 -2.5585975500000018
Cu -0.9489974500000002 -2.7541999500000003 0.4548988500000064
Cu 1.1063003499999908 -3.0419006500000023 -0.9640006499999956
Cu 2.3776015500000014 -0.5082015500000026 1.8955040499999996
Cu -2.947601249999998 -0.7714996499999955 -0.10789864999999565
Zr -1.7426987500000095 2.262100250000003 0.14300155000000814
Cu 0.10469814999999727 0.8737983500000013 2.4904975500000006
Cu 2.947601249999998 0.9948005500000008 0.14999774999999715
Cu 0.6974029499999901 3.0419006500000023 0.05400464999999599
Cu 0.324600150000002 -1.5204009499999955 2.29449855
Zr 0.09049995000000166 -0.09090044999999947 0.07110215000000153
