10

Zr -1.3066977000000009 -2.1105002499999985 -1.9988494
Zr 2.3081017000000017 -0.6618003499999991 -1.7859493000000013
Cu -2.5177994000000012 0.24959945000000072 -0.5991493000000014
Zr -1.3080976999999976 -2.3070001499999995 1.0348505999999977
Cu 2.0017014000000017 0.0017995500000003162 1.2117493999999978
Cu -1.7537993999999983 0.33309935000000035 1.9988494
Zr -0.606098099999997 2.3070001499999995 -1.1791502000000014
Zr 2.5177994000000012 2.2993001499999997 -0.21384960000000053
Cu -0.2836988999999974 1.9020987499999995 1.3620504000000002
Cu -0.25450130000000115 0.10299965000000189 -0.2630497000000007
