12

Zr -2.393199899999999 0.5792026499999956 -1.476799549999999
Cu -1.562297799999996 -3.1061992499999995 0.21540025000000007
Cu -2.437099500000002 -0.8072986500000034 0.7972006499999988
Cu 0.3030967999999916 0.7920017500000007 -2.259099449999999
Zr 0.08150100000000293 -0.7677974499999998 2.259099449999999
Zr 2.437099500000002 -0.503400850000002 0.2219004499999997
Cu -0.2588997000000006 -2.1266994500000003 -1.2968001499999993
Cu 1.956401900000003 3.1061992499999995 -0.841399749999999
Cu -1.6021003999999976 1.9623012499999994 1.244599850000002
Cu -0.3860970000000066 2.5427989500000017 -1.3946996499999997
Zr 1.0016974999999917 2.503000249999996 1.3733000499999992
Cu -0.2351036000000022 0.24830054999999973 -0.04299974999999989
