324
3000 3000 3000
Zr    0.269090    1.963514    0.000000
Zr    0.269090    1.963514    3.578400
Zr    0.269090    1.963514    7.156800
Zr    0.269090    1.963514   10.735200
Zr    0.269090    1.963514   14.313600
Zr   -1.796655   10.067163    0.000000
Zr   -1.796655   10.067163    3.578400
Zr   -1.796655   10.067163    7.156800
Zr   -1.796655   10.067163   10.735200
Zr   -1.796655   10.067163   14.313600
Zr   -3.862400   18.170811    0.000000
Zr   -3.862400   18.170811    3.578400
Zr   -3.862400   18.170811    7.156800
Zr   -3.862400   18.170811   10.735200
Zr   -3.862400   18.170811   14.313600
Zr    9.620490    1.963514    0.000000
Zr    9.620490    1.963514    3.578400
Zr    9.620490    1.963514    7.156800
Zr    9.620490    1.963514   10.735200
Zr    9.620490    1.963514   14.313600
Zr    7.554745   10.067163    0.000000
Zr    7.554745   10.067163    3.578400
Zr    7.554745   10.067163    7.156800
Zr    7.554745   10.067163   10.735200
Zr    7.554745   10.067163   14.313600
Zr    5.489000   18.170811    0.000000
Zr    5.489000   18.170811    3.578400
Zr    5.489000   18.170811    7.156800
Zr    5.489000   18.170811   10.735200
Zr    5.489000   18.170811   14.313600
Zr    7.016565    6.140134    0.000000
Zr    7.016565    6.140134    3.578400
Zr    7.016565    6.140134    7.156800
Zr    7.016565    6.140134   10.735200
Zr    7.016565    6.140134   14.313600
Zr    4.950820   14.243782    0.000000
Zr    4.950820   14.243782    3.578400
Zr    4.950820   14.243782    7.156800
Zr    4.950820   14.243782   10.735200
Zr    4.950820   14.243782   14.313600
Zr    2.885075   22.347431    0.000000
Zr    2.885075   22.347431    3.578400
Zr    2.885075   22.347431    7.156800
Zr    2.885075   22.347431   10.735200
Zr    2.885075   22.347431   14.313600
Zr   16.367966    6.140134    0.000000
Zr   16.367966    6.140134    3.578400
Zr   16.367966    6.140134    7.156800
Zr   16.367966    6.140134   10.735200
Zr   16.367966    6.140134   14.313600
Zr   14.302221   14.243782    0.000000
Zr   14.302221   14.243782    3.578400
Zr   14.302221   14.243782    7.156800
Zr   14.302221   14.243782   10.735200
Zr   14.302221   14.243782   14.313600
Zr   12.236476   22.347431    0.000000
Zr   12.236476   22.347431    3.578400
Zr   12.236476   22.347431    7.156800
Zr   12.236476   22.347431   10.735200
Zr   12.236476   22.347431   14.313600
Zr    3.911918    6.015338    1.789200
Zr    3.911918    6.015338    5.367600
Zr    3.911918    6.015338    8.946000
Zr    3.911918    6.015338   12.524400
Zr    1.846173   14.118987    1.789200
Zr    1.846173   14.118987    5.367600
Zr    1.846173   14.118987    8.946000
Zr    1.846173   14.118987   12.524400
Zr   -0.219572   22.222635    1.789200
Zr   -0.219572   22.222635    5.367600
Zr   -0.219572   22.222635    8.946000
Zr   -0.219572   22.222635   12.524400
Zr   13.263318    6.015338    1.789200
Zr   13.263318    6.015338    5.367600
Zr   13.263318    6.015338    8.946000
Zr   13.263318    6.015338   12.524400
Zr   11.197573   14.118987    1.789200
Zr   11.197573   14.118987    5.367600
Zr   11.197573   14.118987    8.946000
Zr   11.197573   14.118987   12.524400
Zr    9.131827   22.222635    1.789200
Zr    9.131827   22.222635    5.367600
Zr    9.131827   22.222635    8.946000
Zr    9.131827   22.222635   12.524400
Zr    3.373737    2.088310    1.789200
Zr    3.373737    2.088310    5.367600
Zr    3.373737    2.088310    8.946000
Zr    3.373737    2.088310   12.524400
Zr    1.307992   10.191958    1.789200
Zr    1.307992   10.191958    5.367600
Zr    1.307992   10.191958    8.946000
Zr    1.307992   10.191958   12.524400
Zr   -0.757753   18.295607    1.789200
Zr   -0.757753   18.295607    5.367600
Zr   -0.757753   18.295607    8.946000
Zr   -0.757753   18.295607   12.524400
Zr   12.725139    2.088310    1.789200
Zr   12.725139    2.088310    5.367600
Zr   12.725139    2.088310    8.946000
Zr   12.725139    2.088310   12.524400
Zr   10.659393   10.191958    1.789200
Zr   10.659393   10.191958    5.367600
Zr   10.659393   10.191958    8.946000
Zr   10.659393   10.191958   12.524400
Zr    8.593648   18.295607    1.789200
Zr    8.593648   18.295607    5.367600
Zr    8.593648   18.295607    8.946000
Zr    8.593648   18.295607   12.524400
Zr    6.085036    0.803072    0.000000
Zr    6.085036    0.803072    3.578400
Zr    6.085036    0.803072    7.156800
Zr    6.085036    0.803072   10.735200
Zr    6.085036    0.803072   14.313600
Zr    4.019291    8.906720    0.000000
Zr    4.019291    8.906720    3.578400
Zr    4.019291    8.906720    7.156800
Zr    4.019291    8.906720   10.735200
Zr    4.019291    8.906720   14.313600
Zr    1.953546   17.010368    0.000000
Zr    1.953546   17.010368    3.578400
Zr    1.953546   17.010368    7.156800
Zr    1.953546   17.010368   10.735200
Zr    1.953546   17.010368   14.313600
Zr   15.436438    0.803072    0.000000
Zr   15.436438    0.803072    3.578400
Zr   15.436438    0.803072    7.156800
Zr   15.436438    0.803072   10.735200
Zr   15.436438    0.803072   14.313600
Zr   13.370692    8.906720    0.000000
Zr   13.370692    8.906720    3.578400
Zr   13.370692    8.906720    7.156800
Zr   13.370692    8.906720   10.735200
Zr   13.370692    8.906720   14.313600
Zr   11.304947   17.010368    0.000000
Zr   11.304947   17.010368    3.578400
Zr   11.304947   17.010368    7.156800
Zr   11.304947   17.010368   10.735200
Zr   11.304947   17.010368   14.313600
Zr    1.200619    7.300577    0.000000
Zr    1.200619    7.300577    3.578400
Zr    1.200619    7.300577    7.156800
Zr    1.200619    7.300577   10.735200
Zr    1.200619    7.300577   14.313600
Zr   -0.865126   15.404225    0.000000
Zr   -0.865126   15.404225    3.578400
Zr   -0.865126   15.404225    7.156800
Zr   -0.865126   15.404225   10.735200
Zr   -0.865126   15.404225   14.313600
Zr   -2.930871   23.507872    0.000000
Zr   -2.930871   23.507872    3.578400
Zr   -2.930871   23.507872    7.156800
Zr   -2.930871   23.507872   10.735200
Zr   -2.930871   23.507872   14.313600
Zr   10.552019    7.300577    0.000000
Zr   10.552019    7.300577    3.578400
Zr   10.552019    7.300577    7.156800
Zr   10.552019    7.300577   10.735200
Zr   10.552019    7.300577   14.313600
Zr    8.486274   15.404225    0.000000
Zr    8.486274   15.404225    3.578400
Zr    8.486274   15.404225    7.156800
Zr    8.486274   15.404225   10.735200
Zr    8.486274   15.404225   14.313600
Zr    6.420529   23.507872    0.000000
Zr    6.420529   23.507872    3.578400
Zr    6.420529   23.507872    7.156800
Zr    6.420529   23.507872   10.735200
Zr    6.420529   23.507872   14.313600
Zr    0.376464    4.854896    1.789200
Zr    0.376464    4.854896    5.367600
Zr    0.376464    4.854896    8.946000
Zr    0.376464    4.854896   12.524400
Zr   -1.689281   12.958544    1.789200
Zr   -1.689281   12.958544    5.367600
Zr   -1.689281   12.958544    8.946000
Zr   -1.689281   12.958544   12.524400
Zr   -3.755026   21.062193    1.789200
Zr   -3.755026   21.062193    5.367600
Zr   -3.755026   21.062193    8.946000
Zr   -3.755026   21.062193   12.524400
Zr    9.727864    4.854896    1.789200
Zr    9.727864    4.854896    5.367600
Zr    9.727864    4.854896    8.946000
Zr    9.727864    4.854896   12.524400
Zr    7.662119   12.958544    1.789200
Zr    7.662119   12.958544    5.367600
Zr    7.662119   12.958544    8.946000
Zr    7.662119   12.958544   12.524400
Zr    5.596374   21.062193    1.789200
Zr    5.596374   21.062193    5.367600
Zr    5.596374   21.062193    8.946000
Zr    5.596374   21.062193   12.524400
Zr    6.909192    3.248753    1.789200
Zr    6.909192    3.248753    5.367600
Zr    6.909192    3.248753    8.946000
Zr    6.909192    3.248753   12.524400
Zr    4.843447   11.352401    1.789200
Zr    4.843447   11.352401    5.367600
Zr    4.843447   11.352401    8.946000
Zr    4.843447   11.352401   12.524400
Zr    2.777702   19.456049    1.789200
Zr    2.777702   19.456049    5.367600
Zr    2.777702   19.456049    8.946000
Zr    2.777702   19.456049   12.524400
Zr   16.260592    3.248753    1.789200
Zr   16.260592    3.248753    5.367600
Zr   16.260592    3.248753    8.946000
Zr   16.260592    3.248753   12.524400
Zr   14.194846   11.352401    1.789200
Zr   14.194846   11.352401    5.367600
Zr   14.194846   11.352401    8.946000
Zr   14.194846   11.352401   12.524400
Zr   12.129102   19.456049    1.789200
Zr   12.129102   19.456049    5.367600
Zr   12.129102   19.456049    8.946000
Zr   12.129102   19.456049   12.524400
Cu    2.459776    4.327348    0.000000
Cu    2.459776    4.327348    3.578400
Cu    2.459776    4.327348    7.156800
Cu    2.459776    4.327348   10.735200
Cu    2.459776    4.327348   14.313600
Cu    0.394031   12.430996    0.000000
Cu    0.394031   12.430996    3.578400
Cu    0.394031   12.430996    7.156800
Cu    0.394031   12.430996   10.735200
Cu    0.394031   12.430996   14.313600
Cu   -1.671714   20.534643    0.000000
Cu   -1.671714   20.534643    3.578400
Cu   -1.671714   20.534643    7.156800
Cu   -1.671714   20.534643   10.735200
Cu   -1.671714   20.534643   14.313600
Cu   11.811176    4.327348    0.000000
Cu   11.811176    4.327348    3.578400
Cu   11.811176    4.327348    7.156800
Cu   11.811176    4.327348   10.735200
Cu   11.811176    4.327348   14.313600
Cu    9.745432   12.430996    0.000000
Cu    9.745432   12.430996    3.578400
Cu    9.745432   12.430996    7.156800
Cu    9.745432   12.430996   10.735200
Cu    9.745432   12.430996   14.313600
Cu    7.679687   20.534643    0.000000
Cu    7.679687   20.534643    3.578400
Cu    7.679687   20.534643    7.156800
Cu    7.679687   20.534643   10.735200
Cu    7.679687   20.534643   14.313600
Cu    4.825879    3.776300    0.000000
Cu    4.825879    3.776300    3.578400
Cu    4.825879    3.776300    7.156800
Cu    4.825879    3.776300   10.735200
Cu    4.825879    3.776300   14.313600
Cu    2.760134   11.879949    0.000000
Cu    2.760134   11.879949    3.578400
Cu    2.760134   11.879949    7.156800
Cu    2.760134   11.879949   10.735200
Cu    2.760134   11.879949   14.313600
Cu    0.694389   19.983597    0.000000
Cu    0.694389   19.983597    3.578400
Cu    0.694389   19.983597    7.156800
Cu    0.694389   19.983597   10.735200
Cu    0.694389   19.983597   14.313600
Cu   14.177279    3.776300    0.000000
Cu   14.177279    3.776300    3.578400
Cu   14.177279    3.776300    7.156800
Cu   14.177279    3.776300   10.735200
Cu   14.177279    3.776300   14.313600
Cu   12.111534   11.879949    0.000000
Cu   12.111534   11.879949    3.578400
Cu   12.111534   11.879949    7.156800
Cu   12.111534   11.879949   10.735200
Cu   12.111534   11.879949   14.313600
Cu   10.045790   19.983597    0.000000
Cu   10.045790   19.983597    3.578400
Cu   10.045790   19.983597    7.156800
Cu   10.045790   19.983597   10.735200
Cu   10.045790   19.983597   14.313600
Cu    8.168349    0.275523    1.789200
Cu    8.168349    0.275523    5.367600
Cu    8.168349    0.275523    8.946000
Cu    8.168349    0.275523   12.524400
Cu    6.102604    8.379171    1.789200
Cu    6.102604    8.379171    5.367600
Cu    6.102604    8.379171    8.946000
Cu    6.102604    8.379171   12.524400
Cu    4.036859   16.482821    1.789200
Cu    4.036859   16.482821    5.367600
Cu    4.036859   16.482821    8.946000
Cu    4.036859   16.482821   12.524400
Cu   17.519749    0.275523    1.789200
Cu   17.519749    0.275523    5.367600
Cu   17.519749    0.275523    8.946000
Cu   17.519749    0.275523   12.524400
Cu   15.454004    8.379171    1.789200
Cu   15.454004    8.379171    5.367600
Cu   15.454004    8.379171    8.946000
Cu   15.454004    8.379171   12.524400
Cu   13.388259   16.482821    1.789200
Cu   13.388259   16.482821    5.367600
Cu   13.388259   16.482821    8.946000
Cu   13.388259   16.482821   12.524400
Cu   -0.882693    7.828125    1.789200
Cu   -0.882693    7.828125    5.367600
Cu   -0.882693    7.828125    8.946000
Cu   -0.882693    7.828125   12.524400
Cu   -2.948438   15.931773    1.789200
Cu   -2.948438   15.931773    5.367600
Cu   -2.948438   15.931773    8.946000
Cu   -2.948438   15.931773   12.524400
Cu   -5.014184   24.035421    1.789200
Cu   -5.014184   24.035421    5.367600
Cu   -5.014184   24.035421    8.946000
Cu   -5.014184   24.035421   12.524400
Cu    8.468707    7.828125    1.789200
Cu    8.468707    7.828125    5.367600
Cu    8.468707    7.828125    8.946000
Cu    8.468707    7.828125   12.524400
Cu    6.402962   15.931773    1.789200
Cu    6.402962   15.931773    5.367600
Cu    6.402962   15.931773    8.946000
Cu    6.402962   15.931773   12.524400
Cu    4.337217   24.035421    1.789200
Cu    4.337217   24.035421    5.367600
Cu    4.337217   24.035421    8.946000
Cu    4.337217   24.035421   12.524400
