14
comment
Si -2.907973294146148 0.20137638638016206 -1.7892000000000006
Si -2.907973294146148 0.20137638638016203 1.7892000000000006
Si 0.19667456577993497 0.32617181713929255 -3.578400000000001
Si 0.1966745657799355 0.3261718171392925 3.578400000000001
Si 2.9079731085446996 -0.9590665290432591 -1.7892000000000008
Si 2.9079731085446996 -0.9590665290432592 1.7892000000000006
Si 0.08930064415254138 -2.565209680466025 -1.7892000000000006
Si 0.08930064415254166 -2.565209680466025 1.7892000000000006
Si -0.7172868128557454 2.565209266094191 -1.7892000000000006
Si -0.7172868128557452 2.565209266094191 1.7892000000000006
Si 1.64881588914035 2.0141624990388745 -1.7892000000000008
Si 1.6488158891403502 2.0141624990388745 1.7892000000000006
Si -1.9940117726533344 -2.0376613482890185 -9.470004209404946e-17
Si 0.19667456577993522 0.3261718171392925 -2.3218048018958307e-16
