14
comment
Si -2.907973168915667 0.20137622046785256 -1.7892000000000008
Si -2.907973168915667 0.20137622046785258 1.7892000000000008
Si 0.19667432885951444 0.32617177581650797 -3.5784000000000016
Si 0.19667432885951439 0.326171775816508 3.5784000000000016
Si 2.907973137486617 -0.9590664615616212 -1.7892000000000008
Si 2.907973137486617 -0.9590664615616212 1.7892000000000008
Si 0.08930088040613313 -2.565209618954861 -1.7892000000000008
Si 0.08930088040613311 -2.565209618954861 1.7892000000000008
Si -0.717286925343048 2.565209473808418 -1.7892000000000008
Si -0.7172869253430482 2.565209473808418 1.7892000000000008
Si 1.6488159504383748 2.0141624153824362 -1.7892000000000008
Si 1.64881594162372 2.0141625159905288 1.7892000000000008
Si -1.9940117004274163 -2.0376615489526153 -8.526034277636534e-17
Si 0.19667432885951444 0.326171775816508 -7.680552901257261e-17
