14
comment
Si -2.9079732409219448 0.2013762932209405 -1.7892000000000006
Si -2.9079732409219456 0.2013762932209405 1.7892000000000003
Si 0.19667442633869156 0.3261718022535353 -3.578400000000001
Si 0.19667442633869092 0.32617180225353537 3.5784000000000007
Si 2.90797313450717 -0.9590665916035778 -1.7892000000000003
Si 2.9079731345071695 -0.9590665916035778 1.7892000000000006
Si 0.08930074591016536 -2.565209721044931 -1.7892000000000006
Si 0.08930074591016501 -2.565209721044931 1.7892000000000003
Si -0.7172868487186412 2.5652095685084086 -1.7892000000000006
Si -0.7172868487186417 2.5652095685084086 1.7892000000000003
Si 1.6488159581824133 2.0141624143895256 -1.7892000000000003
Si 1.648815958182413 2.0141624143895256 1.7892000000000006
Si -1.9940117088384133 -2.0376615326375007 -9.377594070432293e-17
Si 0.1966744263386912 0.3261718022535353 1.1934765079097209e-17
