14

Zr -1.3358507500000005 -2.256251299999999 -1.828399650000005
Cu 1.1681489500000009 -1.7538498999999987 0.07089995000000116
Zr -3.24874975 1.2335500999999987 -0.5366020500000026
Cu -1.1691503500000007 0.6087503000000005 -2.846500450000004
Cu -0.30375004999999966 2.013449699999999 -1.36500165
Zr 1.2497491500000013 -0.9184504000000011 -2.208602850000002
Zr 3.24874975 0.4658498999999985 -0.1422004500000007
Cu -1.2981500499999985 -2.462050399999999 1.0583000499999962
Cu -2.9418497499999976 -0.7513512999999996 0.8496971500000008
Cu -2.022351249999998 2.462050399999999 2.210098349999999
Cu 2.07594965 0.014248899999998343 1.8806991499999945
Zr -0.16395094999999849 -0.7306509000000005 2.846500450000004
Cu 0.16744895000000248 2.159949300000001 1.4794006499999988
Cu -0.39575104999999944 -0.00035000000000096065 0.25799944999999624
