15

Zr -1.0430493500000004 -0.19505025000000042 -3.2142486499999983
Cu -1.4463495500000008 -2.2333498500000006 -1.359146049999996
Cu 0.9174504500000005 -1.67344955 -1.5984458499999938
Zr 1.9028506499999995 1.0847501499999987 -2.559848749999997
Cu -0.7903494500000008 2.0095500499999988 -2.0009460499999925
Cu -2.261148950000001 1.246950149999999 -0.4445457499999925
Zr -0.4167493499999999 -2.9603500499999997 0.909751950000004
Cu -2.2989497500000002 -1.3874502500000014 2.1125488500000067
Cu -0.09654955000000065 -0.5342502500000004 3.2142486499999983
Cu 2.0939498499999996 -2.020750050000001 0.2829514500000023
Cu 2.2989497500000002 -0.2820500500000014 1.9596557500000067
Zr -1.7792496500000006 1.3420505499999988 2.607353249999999
Cu -0.23984955000000063 2.9603500499999997 0.05315405000000695
Cu 2.2444510500000003 2.168650649999999 0.3296508500000037
Zr 0.12435104999999957 0.3960504499999997 0.18765265000000753
