12

Cu -2.4346486000000027 -1.3212003999999986 -0.22560504999999864
Cu 0.07805059999999742 -1.0550984999999997 -2.211299850000003
Zr 3.2171498000000014 -0.9845991000000005 0.39139935000000037
Cu -3.2171498000000014 0.9156998999999999 -0.9428062500000038
Cu -0.07435040000000015 2.2517004000000007 0.5517997500000007
Cu 1.974748599999998 0.5151013999999989 -1.5209007499999956
Cu -0.8107510000000033 1.4329004000000012 -1.9024009500000005
Zr -0.08255199999999974 -2.2517004000000007 0.24609755000000177
Zr -1.9234486000000004 0.46030139999999875 1.6301002499999981
Zr 2.8270510999999985 1.9034014 1.8801995500000004
Cu 0.7968502000000015 -0.11079889999999892 2.211299850000003
Cu 0.15814780000000184 0.1575002000000012 0.0280952500000069
