12

Zr -2.2783945 -2.6685315 0.0
Zr 1.3644334999999996 1.3832925 -1.7892
Zr 1.3644334999999996 1.3832925 1.7892000000000006
Zr 0.8262545000000001 -2.5437355 -1.7892
Zr 0.8262545000000001 -2.5437355 1.7892000000000006
Zr -1.3468655000000007 2.6685315 0.0
Zr -2.1710205 0.22285050000000028 -1.7892
Zr -2.1710205 0.22285050000000028 1.7892000000000006
Cu -0.08770850000000063 -0.30469750000000007 -3.5784
Cu -0.08770850000000063 -0.30469750000000007 3.5784
Cu 2.2783945 -0.8557454999999998 0.0
Cu -0.08770850000000063 -0.30469750000000007 0.0
