12

Zr -2.2783945 -2.6685315 -4.440892098500626e-16
Zr 1.3644334999999996 1.3832925 -1.7891999999999997
Zr 1.3644334999999996 1.3832925 1.7891999999999997
Zr 0.8262545000000001 -2.5437355 -1.7891999999999997
Zr 0.8262545000000001 -2.5437355 1.7891999999999997
Zr -1.3468655000000007 2.6685315 -4.440892098500626e-16
Zr -2.1710205 0.22285050000000028 -1.7891999999999997
Zr -2.1710205 0.22285050000000028 1.7891999999999997
Cu -0.08770850000000063 -0.30469750000000007 -3.5784000000000002
Cu -0.08770850000000063 -0.30469750000000007 3.5784000000000007
Cu 2.2783945 -0.8557454999999998 -4.440892098500626e-16
Cu -0.08770850000000063 -0.30469750000000007 -4.440892098500626e-16
