12

Zr -2.2783945000000005 -2.6685309999999998 0.0
Zr 1.3644335 1.383293 -1.7892
Zr 1.3644335 1.383293 1.7892000000000006
Zr 0.8262534999999995 -2.543736000000001 -1.7892
Zr 0.8262534999999995 -2.543736000000001 1.7892000000000006
Zr -1.3468655000000003 2.6685309999999998 0.0
Zr -2.1710205000000005 0.22284999999999933 -1.7892
Zr -2.1710205000000005 0.22284999999999933 1.7892000000000006
Cu -0.08770750000000094 -0.30469800000000014 -3.5784
Cu -0.08770750000000094 -0.30469800000000014 3.5784
Cu 2.2783945000000005 -0.8557450000000006 0.0
Cu -0.08770750000000094 -0.30469800000000014 0.0
