12

Zr -2.278395 -2.6685304999999993 -4.440892098500626e-16
Zr 1.3644319999999994 1.3832935000000006 -1.7891999999999997
Zr 1.3644319999999994 1.3832935000000006 1.7891999999999997
Zr 0.8262529999999999 -2.5437344999999993 -1.7891999999999997
Zr 0.8262529999999999 -2.5437344999999993 1.7891999999999997
Zr -1.346866 2.6685304999999993 -4.440892098500626e-16
Zr -2.171021 0.22285150000000087 -1.7891999999999997
Zr -2.171021 0.22285150000000087 1.7891999999999997
Cu -0.08770799999999968 -0.30469850000000065 -3.5784000000000002
Cu -0.08770799999999968 -0.30469850000000065 3.5784000000000007
Cu 2.278395 -0.8557445000000001 -4.440892098500626e-16
Cu -0.08770799999999968 -0.30469850000000065 -4.440892098500626e-16
