12

Zr 2.2783944999999997 2.6685309999999998 1.3322676295501878e-15
Zr -0.8262525000000003 2.543735 -1.7891999999999997
Zr -0.8262525000000003 2.543735 1.7892000000000006
Zr -1.3644335 -1.383293 -1.7891999999999997
Zr -1.3644335 -1.383293 1.7892000000000006
Zr 1.3468654999999994 -2.6685309999999998 1.3322676295501878e-15
Zr 2.1710214999999997 -0.22285000000000021 -1.7891999999999997
Zr 2.1710214999999997 -0.22285000000000021 1.7892000000000006
Cu -2.2783945 0.8557449999999998 1.3322676295501878e-15
Cu 0.0877084999999993 0.304697 -3.5784
Cu 0.0877084999999993 0.304697 3.5784
Cu 0.0877084999999993 0.304697 1.3322676295501878e-15
