12

Zr 2.2783945 2.6685315000000003 0.0
Zr -0.8262525000000002 2.5437355000000004 -1.7892
Zr -0.8262525000000002 2.5437355000000004 1.7892000000000006
Zr -1.3644335 -1.3832924999999996 -1.7892
Zr -1.3644335 -1.3832924999999996 1.7892000000000006
Zr 1.3468654999999998 -2.6685315000000003 0.0
Zr 2.1710215 -0.22285049999999984 -1.7892
Zr 2.1710215 -0.22285049999999984 1.7892000000000006
Cu -2.2783945 0.8557434999999991 0.0
Cu 0.08770849999999986 0.3046974999999996 -3.5784
Cu 0.08770849999999986 0.3046974999999996 3.5784
Cu 0.08770849999999986 0.3046974999999996 0.0
