12

Zr 2.2783945 2.6685309999999998 -4.440892098500626e-16
Zr -0.8262534999999991 2.543736000000001 -1.7891999999999997
Zr -0.8262534999999991 2.543736000000001 1.7891999999999997
Zr -1.3644334999999996 -1.383293 -1.7891999999999997
Zr -1.3644334999999996 -1.383293 1.7891999999999997
Zr 1.3468655000000007 -2.6685309999999998 -4.440892098500626e-16
Zr 2.1710195000000008 -0.22284999999999933 -1.7891999999999997
Zr 2.1710195000000008 -0.22284999999999933 1.7891999999999997
Cu -2.2783945 0.8557450000000006 -4.440892098500626e-16
Cu 0.08770750000000138 0.30469800000000014 -3.5784000000000002
Cu 0.08770750000000138 0.30469800000000014 3.5784000000000007
Cu 0.08770750000000138 0.30469800000000014 -4.440892098500626e-16
