12

Zr 2.2783944999999997 2.6685315000000003 0.0
Zr -0.8262545000000006 2.5437355000000004 -1.7892
Zr -0.8262545000000006 2.5437355000000004 1.7892000000000006
Zr -1.3644335 -1.3832924999999996 -1.7892
Zr -1.3644335 -1.3832924999999996 1.7892000000000006
Zr 1.3468655000000003 -2.6685315000000003 0.0
Zr 2.1710204999999996 -0.22285049999999984 -1.7892
Zr 2.1710204999999996 -0.22285049999999984 1.7892000000000006
Cu -2.2783944999999997 0.8557434999999991 0.0
Cu 0.08770850000000019 0.3046974999999996 -3.5784
Cu 0.08770850000000019 0.3046974999999996 3.5784
Cu 0.08770850000000019 0.3046974999999996 0.0
