12

Zr 1.3644324999999995 1.3832935000000006 -1.7892000000000006
Zr 1.3644324999999995 1.3832935000000006 1.7892000000000006
Zr 0.8262524999999998 -2.5437355000000004 -1.7892000000000006
Zr 0.8262524999999998 -2.5437355000000004 1.7892000000000006
Zr -2.2783945 -2.6685315000000003 -4.440892098500626e-16
Zr -2.1710215 0.22285049999999984 -1.7892000000000006
Zr -2.1710215 0.22285049999999984 1.7892000000000006
Zr -1.3468654999999998 2.6685315000000003 -4.440892098500626e-16
Cu -0.08770849999999975 -0.30469850000000065 -3.5784
Cu -0.08770849999999975 -0.30469850000000065 3.5784
Cu 2.2783945 -0.8557445000000001 -4.440892098500626e-16
Cu -0.08770849999999975 -0.30469850000000065 -4.440892098500626e-16
