12

Zr 1.3644325 1.383293 -1.7892000000000001
Zr 1.3644325 1.383293 1.7891999999999997
Zr 0.8262525000000003 -2.543736000000001 -1.7892000000000001
Zr 0.8262525000000003 -2.543736000000001 1.7891999999999997
Zr -2.2783944999999997 -2.6685309999999998 4.440892098500626e-16
Zr -2.1710214999999997 0.22284999999999933 -1.7892000000000001
Zr -2.1710214999999997 0.22284999999999933 1.7891999999999997
Zr -1.3468654999999998 2.6685309999999998 4.440892098500626e-16
Cu -0.08770850000000019 -0.3046969999999991 -3.5784
Cu -0.08770850000000019 -0.3046969999999991 3.5784
Cu 2.2783944999999997 -0.8557450000000006 4.440892098500626e-16
Cu -0.08770850000000019 -0.3046969999999991 4.440892098500626e-16
