12

Zr 0.1966739999999998 0.6016960000000005 -3.5784000000000002
Zr 0.1966739999999998 0.6016960000000005 3.5784000000000007
Zr -2.907973 0.47690000000000055 -1.7891999999999997
Zr -2.907973 0.47690000000000055 1.7891999999999997
Zr 2.9079729999999997 -0.6835419999999992 -1.7891999999999997
Zr 2.9079729999999997 -0.6835419999999992 1.7891999999999997
Zr 0.08930099999999985 -2.2896859999999997 -1.7891999999999997
Zr 0.08930099999999985 -2.2896859999999997 1.7891999999999997
Cu -1.9940120000000001 -1.7621380000000002 -4.440892098500626e-16
Cu 1.6488159999999996 2.2896859999999997 -1.7891999999999997
Cu 1.6488159999999996 2.2896859999999997 1.7891999999999997
Zr 0.1966739999999998 0.6016960000000005 -4.440892098500626e-16
