14

Zr 2.9079729999999997 -0.20137600000000022 -1.7892000000000001
Zr 2.9079729999999997 -0.20137600000000022 1.7891999999999997
Zr -0.19667400000000024 -0.32617200000000013 -3.5784
Zr -0.19667400000000024 -0.32617200000000013 3.5784
Zr -0.0893010000000003 2.56521 -1.7892000000000001
Zr -0.0893010000000003 2.56521 1.7891999999999997
Zr -2.907973 0.9590669999999997 -1.7892000000000001
Zr -2.907973 0.9590669999999997 1.7891999999999997
Cu -1.648816 -2.0141620000000002 -1.7892000000000001
Cu -1.648816 -2.0141620000000002 1.7891999999999997
Cu 0.7172869999999993 -2.56521 -1.7892000000000001
Cu 0.7172869999999993 -2.56521 1.7891999999999997
Cu 1.9940120000000001 2.0376609999999995 4.440892098500626e-16
Zr -0.19667400000000024 -0.32617200000000013 4.440892098500626e-16
