13

Zr 2.9079729999999997 -0.20137600000000022 -0.8945999999999987
Zr 2.9079729999999997 -0.20137600000000022 2.6837999999999997
Zr -0.19667400000000024 -0.32617200000000013 -2.6837999999999997
Zr -0.0893010000000003 2.56521 -0.8945999999999987
Zr -0.0893010000000003 2.56521 2.6837999999999997
Zr -2.907973 0.9590669999999997 -0.8945999999999987
Zr -2.907973 0.9590669999999997 2.6837999999999997
Cu -1.648816 -2.0141620000000002 -0.8945999999999987
Cu -1.648816 -2.0141620000000002 2.6837999999999997
Cu 0.7172869999999993 -2.56521 -0.8945999999999987
Cu 0.7172869999999993 -2.56521 2.6837999999999997
Cu 1.9940120000000001 2.0376609999999995 0.8946000000000005
Zr -0.19667400000000024 -0.32617200000000013 0.8946000000000005
