13

Zr 2.907973 -0.2013765000000003 -0.8945999999999987
Zr 2.907973 -0.2013765000000003 2.6837999999999997
Zr -0.19667400000000002 -0.32617149999999917 -2.6837999999999997
Zr -0.08930100000000007 2.5652095 -0.8945999999999987
Zr -0.08930100000000007 2.5652095 2.6837999999999997
Zr -2.907973 0.9590665000000005 -0.8945999999999987
Zr -2.907973 0.9590665000000005 2.6837999999999997
Cu -1.648816 -2.0141624999999994 -0.8945999999999987
Cu -1.648816 -2.0141624999999994 2.6837999999999997
Cu 0.7172869999999998 -2.5652095 -0.8945999999999987
Cu 0.7172869999999998 -2.5652095 2.6837999999999997
Cu 1.9940119999999997 2.0376625000000015 0.8946000000000005
Zr -0.19667400000000002 -0.32617149999999917 0.8946000000000005
