13

Zr 2.9079734999999998 -0.20137600000000022 -2.6838
Zr 2.9079734999999998 -0.20137600000000022 0.8945999999999996
Zr -0.19667449999999942 -0.32617200000000013 2.6838
Zr -0.08930049999999934 2.56521 -2.6838
Zr -0.08930049999999934 2.56521 0.8945999999999996
Zr -2.9079734999999998 0.9590669999999997 -2.6838
Zr -2.9079734999999998 0.9590669999999997 0.8945999999999996
Cu -1.6488164999999997 -2.0141620000000002 -2.6838
Cu -1.6488164999999997 -2.0141620000000002 0.8945999999999996
Cu 0.717286500000001 -2.56521 -2.6838
Cu 0.717286500000001 -2.56521 0.8945999999999996
Cu 1.9940115 2.0376609999999995 -0.8946000000000003
Zr -0.19667449999999942 -0.32617200000000013 -0.8946000000000003
