14

Zr 2.9079734999999998 -0.20137600000000022 -1.7892000000000006
Zr 2.9079734999999998 -0.20137600000000022 1.7892000000000006
Zr -0.19667449999999942 -0.32617200000000013 -3.5784
Zr -0.19667449999999942 -0.32617200000000013 3.5784
Zr -0.08930049999999934 2.56521 -1.7892000000000006
Zr -0.08930049999999934 2.56521 1.7892000000000006
Zr -2.9079734999999998 0.9590669999999997 -1.7892000000000006
Zr -2.9079734999999998 0.9590669999999997 1.7892000000000006
Cu -1.6488164999999997 -2.0141620000000002 -1.7892000000000006
Cu -1.6488164999999997 -2.0141620000000002 1.7892000000000006
Cu 0.717286500000001 -2.56521 -1.7892000000000006
Cu 0.717286500000001 -2.56521 1.7892000000000006
Cu 1.9940115 2.0376609999999995 -4.440892098500626e-16
Zr -0.19667449999999942 -0.32617200000000013 -4.440892098500626e-16
