13

Zr 2.9079734999999998 -0.2013765000000003 -0.8945999999999987
Zr 2.9079734999999998 -0.2013765000000003 2.6837999999999997
Zr -0.19667449999999942 -0.32617149999999917 -2.6837999999999997
Zr -0.08930049999999934 2.5652095 -0.8945999999999987
Zr -0.08930049999999934 2.5652095 2.6837999999999997
Zr -2.9079734999999998 0.9590665000000005 -0.8945999999999987
Zr -2.9079734999999998 0.9590665000000005 2.6837999999999997
Cu -1.6488155000000004 -2.0141624999999994 -0.8945999999999987
Cu -1.6488155000000004 -2.0141624999999994 2.6837999999999997
Cu 0.717286500000001 -2.5652095 -0.8945999999999987
Cu 0.717286500000001 -2.5652095 2.6837999999999997
Cu 1.9940115 2.0376625000000015 0.8946000000000005
Zr -0.19667449999999942 -0.32617149999999917 0.8946000000000005
