13

Zr -2.907973 0.20137650000000074 -2.6838
Zr -2.907973 0.20137650000000074 0.8945999999999996
Zr 0.1966739999999998 0.3261714999999996 2.6838
Zr 2.9079729999999997 -0.9590665 -2.6838
Zr 2.9079729999999997 -0.9590665 0.8945999999999996
Zr 0.08930099999999985 -2.5652095000000004 -2.6838
Zr 0.08930099999999985 -2.5652095000000004 0.8945999999999996
Cu -0.7172870000000002 2.5652095000000004 -2.6838
Cu -0.7172870000000002 2.5652095000000004 0.8945999999999996
Cu 1.6488159999999996 2.0141625 -2.6838
Cu 1.6488159999999996 2.0141625 0.8945999999999996
Cu -1.9940110000000002 -2.0376615 -0.8946000000000003
Zr 0.1966739999999998 0.3261714999999996 -0.8946000000000003
