14

Zr -0.19667500000000038 -0.32617149999999917 -3.5784000000000002
Zr -0.19667500000000038 -0.32617149999999917 3.5784000000000007
Zr 2.9079729999999997 -0.2013765000000003 -1.7891999999999997
Zr 2.9079729999999997 -0.2013765000000003 1.7891999999999997
Zr -0.0893010000000003 2.5652095 -1.7891999999999997
Zr -0.0893010000000003 2.5652095 1.7891999999999997
Zr -2.9079729999999997 0.9590665000000005 -1.7891999999999997
Zr -2.9079729999999997 0.9590665000000005 1.7891999999999997
Cu 1.9940119999999992 2.0376615000000005 -4.440892098500626e-16
Cu -1.6488159999999996 -2.0141635000000004 -1.7891999999999997
Cu -1.6488159999999996 -2.0141635000000004 1.7891999999999997
Cu 0.7172870000000002 -2.5652095 -1.7891999999999997
Cu 0.7172870000000002 -2.5652095 1.7891999999999997
Zr -0.19667500000000038 -0.32617149999999917 -4.440892098500626e-16
