13

Zr -2.907973 0.2013770000000008 -0.8945999999999987
Zr -2.907973 0.2013770000000008 2.6837999999999997
Zr 0.1966739999999999 0.3261730000000007 -2.6837999999999997
Zr 2.907973 -0.959066 -0.8945999999999987
Zr 2.907973 -0.959066 2.6837999999999997
Zr 0.08930099999999996 -2.5652089999999994 -0.8945999999999987
Zr 0.08930099999999996 -2.5652089999999994 2.6837999999999997
Cu -0.717287 2.5652089999999994 -0.8945999999999987
Cu -0.717287 2.5652089999999994 2.6837999999999997
Cu 1.648816 2.014163 -0.8945999999999987
Cu 1.648816 2.014163 2.6837999999999997
Cu -1.994011 -2.037661 0.8946000000000005
Zr 0.1966739999999999 0.3261730000000007 0.8946000000000005
