13

Zr -2.9079735 0.20137650000000074 -0.8945999999999987
Zr -2.9079735 0.20137650000000074 2.6837999999999997
Zr 0.19667449999999986 0.3261714999999996 -2.6837999999999997
Zr 2.9079735 -0.9590665 -0.8945999999999987
Zr 2.9079735 -0.9590665 2.6837999999999997
Zr 0.08930049999999978 -2.5652095000000004 -0.8945999999999987
Zr 0.08930049999999978 -2.5652095000000004 2.6837999999999997
Cu -0.7172865000000006 2.5652095000000004 -0.8945999999999987
Cu -0.7172865000000006 2.5652095000000004 2.6837999999999997
Cu 1.6488155000000009 2.0141625 -0.8945999999999987
Cu 1.6488155000000009 2.0141625 2.6837999999999997
Cu -1.9940114999999996 -2.0376615 0.8946000000000005
Zr 0.19667449999999986 0.3261714999999996 0.8946000000000005
