13

Zr -2.9079735 0.2013770000000008 -2.6838
Zr -2.9079735 0.2013770000000008 0.8945999999999996
Zr 0.19667449999999986 0.3261730000000007 2.6838
Zr 2.9079735 -0.959066 -2.6838
Zr 2.9079735 -0.959066 0.8945999999999996
Zr 0.08930049999999978 -2.5652089999999994 -2.6838
Zr 0.08930049999999978 -2.5652089999999994 0.8945999999999996
Cu -0.7172864999999997 2.5652089999999994 -2.6838
Cu -0.7172864999999997 2.5652089999999994 0.8945999999999996
Cu 1.6488165000000001 2.014163 -2.6838
Cu 1.6488165000000001 2.014163 0.8945999999999996
Cu -1.9940115000000005 -2.037661 -0.8946000000000003
Zr 0.19667449999999986 0.3261730000000007 -0.8946000000000003
