14

Zr -2.9079735 0.2013770000000008 -1.7892000000000001
Zr -2.9079735 0.2013770000000008 1.7891999999999997
Zr 0.19667449999999986 0.3261730000000007 -3.5784
Zr 0.19667449999999986 0.3261730000000007 3.5784
Zr 2.9079735 -0.959066 -1.7892000000000001
Zr 2.9079735 -0.959066 1.7891999999999997
Zr 0.08930049999999978 -2.5652089999999994 -1.7892000000000001
Zr 0.08930049999999978 -2.5652089999999994 1.7891999999999997
Cu -0.7172864999999997 2.5652089999999994 -1.7892000000000001
Cu -0.7172864999999997 2.5652089999999994 1.7891999999999997
Cu 1.6488165000000001 2.014163 -1.7892000000000001
Cu 1.6488165000000001 2.014163 1.7891999999999997
Cu -1.9940115000000005 -2.037661 4.440892098500626e-16
Zr 0.19667449999999986 0.3261730000000007 4.440892098500626e-16
