13

Zr 0.2603065 -2.9323055 -1.7892
Zr 0.2603065 -2.9323055 1.7892000000000006
Zr -2.3436195 1.2443144999999998 -1.7892
Zr -2.3436195 1.2443144999999998 1.7892000000000006
Zr 0.36767949999999994 -0.04092349999999989 -3.5784
Zr 0.36767949999999994 -0.04092349999999989 3.5784
Zr -2.4509925 -1.6470665000000002 0.0
Zr 1.1918355000000003 2.4047575000000005 -1.7892
Zr 1.1918355000000003 2.4047575000000005 1.7892000000000006
Cu -0.8914775000000001 2.9323055 0.0
Cu 2.4509925000000004 -0.5684725000000004 -1.7892
Cu 2.4509925000000004 -0.5684725000000004 1.7892000000000006
Zr 0.36767949999999994 -0.04092349999999989 0.0
