13

Zr 0.2603065 -2.9323055 -1.7891999999999997
Zr 0.2603065 -2.9323055 1.7891999999999997
Zr -2.3436195 1.2443144999999998 -1.7891999999999997
Zr -2.3436195 1.2443144999999998 1.7891999999999997
Zr 0.36767949999999994 -0.04092349999999989 -3.5784000000000002
Zr 0.36767949999999994 -0.04092349999999989 3.5784000000000007
Zr -2.4509925 -1.6470665000000002 -4.440892098500626e-16
Zr 1.1918355000000003 2.4047575000000005 -1.7891999999999997
Zr 1.1918355000000003 2.4047575000000005 1.7891999999999997
Cu -0.8914775000000001 2.9323055 -4.440892098500626e-16
Cu 2.4509925000000004 -0.5684725000000004 -1.7891999999999997
Cu 2.4509925000000004 -0.5684725000000004 1.7891999999999997
Zr 0.36767949999999994 -0.04092349999999989 -4.440892098500626e-16
