13

Zr 0.26030650000000044 -2.9323049999999995 -1.7891999999999997
Zr 0.26030650000000044 -2.9323049999999995 1.7891999999999997
Zr -2.3436185 1.2443150000000003 -1.7891999999999997
Zr -2.3436185 1.2443150000000003 1.7891999999999997
Zr 0.3676805000000005 -0.040924000000000404 -3.5784000000000002
Zr 0.3676805000000005 -0.040924000000000404 3.5784000000000007
Zr -2.4509925 -1.6470669999999998 -4.440892098500626e-16
Zr 1.1918354999999998 2.404757 -1.7891999999999997
Zr 1.1918354999999998 2.404757 1.7891999999999997
Cu -0.8914764999999996 2.9323049999999995 -4.440892098500626e-16
Cu 2.4509925 -0.5684709999999988 -1.7891999999999997
Cu 2.4509925 -0.5684709999999988 1.7891999999999997
Zr 0.3676805000000005 -0.040924000000000404 -4.440892098500626e-16
