12

Zr 0.26030600000000037 -2.9323055 -2.6838
Zr 0.26030600000000037 -2.9323055 0.8945999999999996
Zr -2.343619 1.2443144999999998 -2.6838
Zr -2.343619 1.2443144999999998 0.8945999999999996
Zr 1.1918349999999998 2.4047574999999997 -2.6838
Zr 1.1918349999999998 2.4047574999999997 0.8945999999999996
Zr 0.36768000000000045 -0.04092349999999989 2.6838
Zr -2.450992 -1.6470665000000002 -0.8946000000000003
Cu 2.450992 -0.5684715000000002 -2.6838
Cu 2.450992 -0.5684715000000002 0.8945999999999996
Cu -0.8914769999999996 2.9323055 -0.8946000000000003
Zr 0.36768000000000045 -0.04092349999999989 -0.8946000000000003
