13

Zr 0.26030600000000037 -2.9323055 -1.7892000000000006
Zr 0.26030600000000037 -2.9323055 1.7892000000000006
Zr -2.343619 1.2443144999999998 -1.7892000000000006
Zr -2.343619 1.2443144999999998 1.7892000000000006
Zr 1.1918349999999998 2.4047574999999997 -1.7892000000000006
Zr 1.1918349999999998 2.4047574999999997 1.7892000000000006
Zr 0.36768000000000045 -0.04092349999999989 -3.5784
Zr 0.36768000000000045 -0.04092349999999989 3.5784
Zr -2.450992 -1.6470665000000002 -4.440892098500626e-16
Cu 2.450992 -0.5684715000000002 -1.7892000000000006
Cu 2.450992 -0.5684715000000002 1.7892000000000006
Cu -0.8914769999999996 2.9323055 -4.440892098500626e-16
Zr 0.36768000000000045 -0.04092349999999989 -4.440892098500626e-16
