12

Zr 0.26030549999999986 -2.9323049999999995 -2.6838
Zr 0.26030549999999986 -2.9323049999999995 0.8945999999999996
Zr -2.3436194999999995 1.2443139999999993 -2.6838
Zr -2.3436194999999995 1.2443139999999993 0.8945999999999996
Zr 1.1918345000000001 2.404757 -2.6838
Zr 1.1918345000000001 2.404757 0.8945999999999996
Zr 0.36767949999999994 -0.040924000000000404 2.6838
Zr -2.4509924999999995 -1.6470669999999998 -0.8946000000000003
Cu 2.4509924999999995 -0.5684719999999999 -2.6838
Cu 2.4509924999999995 -0.5684719999999999 0.8945999999999996
Cu -0.8914775000000001 2.9323049999999995 -0.8946000000000003
Zr 0.36767949999999994 -0.040924000000000404 -0.8946000000000003
