12

Zr 0.26030549999999986 -2.9323049999999995 -2.6838
Zr 0.26030549999999986 -2.9323049999999995 0.8945999999999996
Zr -2.3436195 1.2443150000000003 -2.6838
Zr -2.3436195 1.2443150000000003 0.8945999999999996
Zr 1.1918345000000001 2.404755999999999 -2.6838
Zr 1.1918345000000001 2.404755999999999 0.8945999999999996
Zr 0.36767949999999994 -0.04092299999999938 2.6838
Zr -2.4509925 -1.6470669999999998 -0.8946000000000003
Cu 2.4509925000000004 -0.5684730000000009 -2.6838
Cu 2.4509925000000004 -0.5684730000000009 0.8945999999999996
Cu -0.8914775000000001 2.9323049999999995 -0.8946000000000003
Zr 0.36767949999999994 -0.04092299999999938 -0.8946000000000003
