13

Zr 0.26030549999999986 -2.9323049999999995 -1.7892000000000001
Zr 0.26030549999999986 -2.9323049999999995 1.7891999999999997
Zr -2.3436195 1.2443150000000003 -1.7892000000000001
Zr -2.3436195 1.2443150000000003 1.7891999999999997
Zr 1.1918345000000001 2.404755999999999 -1.7892000000000001
Zr 1.1918345000000001 2.404755999999999 1.7891999999999997
Zr 0.36767949999999994 -0.04092299999999938 -3.5784
Zr 0.36767949999999994 -0.04092299999999938 3.5784
Zr -2.4509925 -1.6470669999999998 4.440892098500626e-16
Cu 2.4509925000000004 -0.5684730000000009 -1.7892000000000001
Cu 2.4509925000000004 -0.5684730000000009 1.7891999999999997
Cu -0.8914775000000001 2.9323049999999995 4.440892098500626e-16
Zr 0.36767949999999994 -0.04092299999999938 4.440892098500626e-16
