14

Zr 0.1966739999999998 0.32617200000000013 -3.5784
Zr 0.1966739999999998 0.32617200000000013 3.5784
Zr -2.907973 0.20137600000000022 -1.7892
Zr -2.907973 0.20137600000000022 1.7892000000000006
Zr 2.907973 -0.9590659999999995 -1.7892
Zr 2.907973 -0.9590659999999995 1.7892000000000006
Zr 0.08930099999999985 -2.565209 -1.7892
Zr 0.08930099999999985 -2.565209 1.7892000000000006
Cu -1.9940120000000006 -2.0376619999999996 0.0
Cu -0.7172869999999998 2.565209 -1.7892
Cu -0.7172869999999998 2.565209 1.7892000000000006
Cu 1.648816 2.0141630000000004 -1.7892
Cu 1.648816 2.0141630000000004 1.7892000000000006
Zr 0.1966739999999998 0.32617200000000013 0.0
