13

Zr 2.3436185 -1.2443134999999987 -1.7892000000000006
Zr 2.3436185 -1.2443134999999987 1.7892000000000006
Zr -0.26030649999999955 2.9323055 -1.7892000000000006
Zr -0.26030649999999955 2.9323055 1.7892000000000006
Zr -1.1918354999999998 -2.4047564999999995 -1.7892000000000006
Zr -1.1918354999999998 -2.4047564999999995 1.7892000000000006
Zr 2.4509925 1.6470675000000004 -4.440892098500626e-16
Zr -0.3676794999999995 0.04092450000000092 -3.5784
Zr -0.3676794999999995 0.04092450000000092 3.5784
Cu -2.4509925 0.5684725000000004 -1.7892000000000006
Cu -2.4509925 0.5684725000000004 1.7892000000000006
Cu 0.8914775000000006 -2.9323055 -4.440892098500626e-16
Zr -0.3676794999999995 0.04092450000000092 -4.440892098500626e-16
