12

Zr 2.3436185 -1.2443134999999987 -0.8945999999999987
Zr 2.3436185 -1.2443134999999987 2.6837999999999997
Zr -0.26030649999999955 2.9323055 -0.8945999999999987
Zr -0.26030649999999955 2.9323055 2.6837999999999997
Zr -1.1918354999999998 -2.4047564999999995 -0.8945999999999987
Zr -1.1918354999999998 -2.4047564999999995 2.6837999999999997
Zr 2.4509925 1.6470675000000004 0.8946000000000005
Zr -0.3676794999999995 0.04092450000000092 -2.6837999999999997
Cu -2.4509925 0.5684725000000004 -0.8945999999999987
Cu -2.4509925 0.5684725000000004 2.6837999999999997
Cu 0.8914775000000006 -2.9323055 0.8946000000000005
Zr -0.3676794999999995 0.04092450000000092 0.8946000000000005
