13

Zr 2.3436185 -1.2443150000000003 -1.7892000000000001
Zr 2.3436185 -1.2443150000000003 1.7891999999999997
Zr -0.2603065 2.9323049999999995 -1.7892000000000001
Zr -0.2603065 2.9323049999999995 1.7891999999999997
Zr -1.1918355 -2.404758000000001 -1.7892000000000001
Zr -1.1918355 -2.404758000000001 1.7891999999999997
Zr 2.4509925 1.6470669999999998 4.440892098500626e-16
Zr -0.36767949999999994 0.04092299999999938 -3.5784
Zr -0.36767949999999994 0.04092299999999938 3.5784
Cu -2.4509925 0.5684709999999988 -1.7892000000000001
Cu -2.4509925 0.5684709999999988 1.7891999999999997
Cu 0.8914774999999997 -2.9323049999999995 4.440892098500626e-16
Zr -0.36767949999999994 0.04092299999999938 4.440892098500626e-16
