12

Cu -2.656250049999997 -0.20549969999999362 -1.8905502000000007
Zr -2.264846849999998 2.4109020000000037 -0.5388504000000003
Cu 1.9134520500000036 -0.1579991000000014 -1.1568504000000006
Cu -0.9771500500000059 -2.8288021000000008 1.1075501999999995
Zr -0.21234905000000026 -1.977701200000002 -1.226350300000001
Cu -0.3606491500000004 0.46999929999999424 -2.4923501000000003
Cu 0.8662490499999933 -1.7704029999999982 1.0426487999999994
Zr 1.1653518499999933 2.020299899999994 1.6767486999999983
Cu 2.656250049999997 -0.053201700000006014 1.0116485999999982
Zr 1.1202544500000045 2.8288021000000008 -1.1716503999999999
Zr -1.1410523499999954 -0.18119999999999337 2.4923501000000003
Cu -0.17185215000000653 0.3678950999999948 -0.30675079999999877
