14

Zr 0.40715034999999844 -1.551098849999999 -2.3155994999999976
Cu -2.1950492500000003 -2.1757002499999984 -0.17700010000000077
Zr 0.5306511500000006 -3.1300001500000008 0.7036991000000015
Cu -2.446750649999995 0.41880125000000135 -2.1199016999999998
Cu -0.5074500499999992 -2.305399949999998 3.075399400000002
Cu 2.151950850000002 -1.5069990499999975 -0.5778026999999994
Zr -0.12405014999999864 3.1300001500000008 -1.0341014999999985
Cu -0.2696494499999993 0.7797002500000012 -3.075399400000002
Cu -2.646350850000001 0.6796998500000022 0.46479980000000154
Zr 2.1687507500000045 1.2146997500000012 0.4106006000000022
Cu -2.121250149999998 -1.1524000500000007 2.155198999999996
Cu 2.646350850000001 -1.661700249999999 1.9344005000000024
Cu 1.1652488500000011 0.2819013500000018 2.723199799999996
Zr -0.13064954999999756 -0.14490035000000034 0.20960039999999935
