13

Zr 0.7174937150000034 -1.0447501999999957 -3.084799750000001
Cu -2.233420715000001 -0.1889534000000026 -2.0641001500000007
Zr -0.8526224150000061 -2.4571495 1.8790998499999985
Cu 1.3383798150000032 -2.2210501999999934 -0.7484998500000009
Zr 2.7460168150000044 0.6591453999999999 -0.3753003500000007
Zr -0.573218715000003 2.4571495 -1.68970005
Zr 1.6537908150000007 -1.079051899999996 2.265999849999999
Cu 0.32883381500000297 2.2279472999999967 1.0717994499999994
Zr -2.7460168149999973 -1.0739477999999991 0.047900249999998756
Zr -2.659118014999997 1.7914467000000087 0.8425989499999984
Cu -2.391318715000004 -0.5896491000000026 2.745999350000001
Cu -0.13552031500000083 0.6546517000000023 3.084799750000001
Cu -0.16281831500000266 -0.2809486000000021 0.23389914999999828
