13

Zr -2.344999399999999 -0.6773529499999995 -1.3137016500000023
Zr -0.284400999999999 -2.473850249999998 -0.4636001500000013
Cu -1.9577998999999977 2.1352501499999974 -0.08110044999999744
Zr 2.070899900000004 -1.099849749999997 -2.2665023499999997
Cu -0.15760039999999975 -0.08625035000000025 -2.6833000500000033
Cu 2.358501499999999 1.6359481500000044 -1.1749000500000015
Zr -0.006000600000000134 2.473850249999998 -1.4696998500000014
Cu -0.9062996000000005 2.1459503499999997 2.1174010500000016
Zr -2.4193000999999974 -0.13985064999999963 2.0653992500000022
Cu 2.4193000999999974 -0.5794525499999992 0.37649914999999723
Zr 0.28890030000000166 -0.6858520500000012 2.6833000500000033
Zr 1.422899300000001 1.9251480500000042 1.4999999499999994
Cu -0.13899999999999935 0.015548750000000666 0.10350045000000208
