15

Zr -1.0361620500000002 -2.9767503500000014 0.16945025000000058
Cu -1.4892140500000002 -0.5858506499999994 -1.6313500500000018
Zr -2.5727410500000003 1.699349549999999 -1.257750050000002
Zr -2.99870005 -0.23664944999999982 1.7735495499999985
Zr 1.16908995 -0.2297506500000015 -3.0230498499999996
Cu 1.4409998499999999 -2.1621502500000016 -0.9098495500000006
Cu 0.17601004999999992 2.459750250000001 -1.7569489500000017
Zr 2.9987000499999996 0.58974935 -1.0942502500000018
Cu 2.3880499499999996 1.3165502500000006 1.4241499500000003
Cu -1.36475205 1.9339494499999983 2.463450850000001
Cu 0.8633999499999998 0.7449503499999981 3.0230498499999996
Cu -0.15950005000000012 -1.144450149999999 2.46034955
Zr 0.48884004999999986 2.9767503500000014 0.67274995
Zr 2.3056701499999996 -1.92965025 1.6415495500000006
Zr 0.12229994999999994 0.2138510500000006 0.11655005000000074
