13

Cu -0.5456008499999925 0.7819509500000006 -2.184797249999999
Zr 1.5100021499999983 -2.3972501499999996 -0.04989815000000064
Zr -2.550102250000002 0.8661508500000021 -0.3949985500000004
Cu -1.3293990499999992 -2.2260503499999995 0.10210224999999795
Zr -0.6540984499999993 -1.7396496499999987 -2.677900349999998
Cu 2.550102250000002 -0.05064864999999763 0.5241031499999984
Cu 2.0800018500000093 -0.11754894999999799 -1.8405971500000042
Cu -2.399101249999994 1.507451050000002 2.3745021500000014
Zr 0.8681030500000091 2.3972501499999996 -0.38819695000000465
Cu -1.7882995499999979 -1.016949649999999 2.045602749999997
Cu 0.5405960499999978 -1.7438496499999996 2.232702249999999
Zr 1.0578994500000007 0.8972502500000008 2.677900349999998
Cu 0.21779635000000752 0.17595005000000263 0.21850025000000173
