14

Cu 0.2878100999999993 -2.3634500000000003 -1.2441500499999947
Cu 0.23127010000000015 -0.33434960000000125 -2.6471500500000005
Zr -2.1510098 -1.1072492 -0.8610515499999991
Cu 2.4505097 -1.9177494 -0.1725482499999984
Zr 2.1084701999999997 1.108051399999999 -1.987749149999999
Cu 0.22616029999999965 2.7507496000000007 -0.28764915
Cu 3.0828998000000003 1.5800494999999994 0.41444965000000167
Zr -1.9873598000000001 1.8914509000000006 -1.1730518500000002
Cu -3.0828998000000003 0.3279495000000008 1.6149501500000056
Cu 0.9114700999999994 -2.7507496000000007 1.6872501500000041
Cu -0.8531297000000007 -0.49584959999999967 2.169351550000002
Zr 0.7463599999999997 1.8221511999999986 2.524950050000001
Zr 2.2418000999999994 -0.6996497999999995 2.6471500500000005
Zr 0.23249029999999982 0.04085059999999885 0.05785175000000464
