11

Cu 0.050875250000000705 -1.5521508000000033 -1.879349699999997
Cu -1.2732148500000005 0.4252471999999976 -2.307349199999999
Cu -2.2739949500000005 1.6872482999999967 0.04915140000000129
Zr -2.5043749500000008 -1.0614510000000017 -0.5049484999999994
Cu -0.07362505000000041 -2.1902504 0.6303509999999992
Cu -0.5861248499999991 1.9509505999999952 1.9000502000000044
Cu -1.0250048500000002 -0.5156517000000029 2.307349199999999
Zr 1.6424746500000005 0.5875473000000007 1.9127493000000033
Cu 2.5043749500000008 -0.22764970000000417 -0.562849899999998
Zr 1.09597445 2.1902504 -0.5036496999999986
Cu -0.27592514999999906 0.041450499999999835 0.21225070000000024
