13

Zr -2.8764992000000014 0.10119959999999928 -0.46145060000000093
Zr -1.2569008000000004 -1.6601005000000004 -2.519149799999999
Cu -0.8334007000000021 -2.3290000000000006 1.4709492000000015
Cu 0.2672996999999988 -2.7226996999999997 -0.43625070000000044
Zr 2.8764992000000014 -1.718 0.16104889999999905
Zr 1.672100099999998 -0.5371003000000005 -2.233850500000001
Cu 1.533901199999999 2.4649997 -1.5480497999999994
Cu -1.228199 1.264899699999999 -2.2753506000000012
Cu -1.3743019000000025 0.28389980000000037 1.9783497000000008
Zr -0.8134003000000014 2.7226996999999997 0.12234879999999926
Cu 0.8124999999999964 -0.5133004000000003 2.519149799999999
Cu 2.1196975999999985 1.177299999999999 0.4577504000000001
Cu 0.3311005000000016 -0.22180029999999995 -0.07075119999999835
