12

Zr -1.46266505 -2.4705505499999987 1.57898067
Cu -2.24311495 -1.2347488500000026 -0.7966193299999986
Cu 0.66215475 -2.3768539499999974 -0.25139932999999814
Zr -2.52576495 0.5197524499999986 1.4213802700000002
Cu 0.30423515000000023 2.1716460499999926 2.2434104700000006
Cu 0.18796494999999958 -0.5394516500000037 2.7046506699999995
Zr 2.52576495 0.13085174999999083 1.2359106700000027
Zr -0.6465649500000001 -0.8537521500000054 -2.7046506699999995
Zr 0.4481749499999994 2.4705505499999987 -0.5279696300000012
Cu -1.82453485 1.1871490500000021 -1.821548170000007
Cu 1.6279549500000003 -0.31745155000000125 -1.1501195299999978
Cu -0.25131455 -0.09304815000000133 0.14512037000000078
