13

Zr 0.5226261000000001 -1.3555946999999975 -2.6582983999999996
Cu -1.8328900999999997 0.4696005999999926 -2.4920997999999983
Cu -0.005433999999999717 1.9006995999999958 -2.3538017999999923
Zr 2.6101461 0.3440054999999944 -1.9989967999999934
Cu -1.2580341 -3.0508995 -1.3123971000000054
Cu -2.5799651 -1.2614937000000026 -0.13180159999999574
Zr -0.1724641 -1.9857979000000086 0.7265968000000029
Cu 2.2312361 -2.187099500000002 -0.8265038000000047
Cu -1.3146641 0.5290030999999971 2.6582983999999996
Zr -2.6101461 1.1970024999999964 0.49779900000000765
Cu 0.4283958000000001 3.0508995 -0.5377997999999948
Zr 1.3708258 0.6159018999999972 1.4831962000000019
Cu -0.2684639999999998 0.25140000000000384 -0.7532996999999924
