12

Zr 0.9844474500000047 -2.497749350000003 -0.41870120000000455
Cu 0.11244574999999202 -1.548248349999998 -2.6921996999999998
Zr 0.8874472499999939 0.7792510500000027 -2.4192010000000046
Cu 2.613552150000004 1.241649650000003 -0.13800050000000041
Zr -0.12894825000000765 2.6437492500000026 -0.6409989000000031
Zr 0.38174814999999285 -2.6437492500000026 2.6301001999999976
Cu -1.9567528500000009 -0.23664855000000173 -0.485599600000004
Cu -1.6031532500000054 -0.77845005 2.645999899999996
Zr -2.613552150000004 1.602951049999998 1.1850012999999997
Cu -0.48465355000000443 1.4053497500000027 2.6921996999999998
Zr 2.1007499499999938 -0.43624875000000074 2.1367987999999976
Cu 0.1971473499999945 0.05274964999999909 0.14929959999999554
