12

Zr 1.281350250000001 1.287959580000006 -2.7606506500000023
Cu -2.510849949999999 -0.3974952800000011 -0.592651349999997
Zr -1.1818513500000005 -1.0933952799999958 -2.424850450000001
Zr -0.9719514500000006 2.4071893800000055 -0.9148483499999998
Cu 1.8214502500000034 2.7430991800000015 0.10625075000000095
Cu -0.41605084999999953 -2.7430991800000015 -0.20484925000000231
Cu 1.592648549999998 -2.7270927800000067 -0.5463485499999976
Zr -1.5154504500000012 -0.642291979999996 1.7749481500000002
Cu 2.510849949999999 0.31370162000000335 -0.6224518499999974
Zr 1.4001474499999969 -2.0894965800000023 2.004150349999996
Zr 0.2544489499999987 1.5252394800000033 2.7606506500000023
Cu 0.1834497499999994 -0.06919478000000368 -0.10314945000000364
