14

Cu -2.5124998000000005 1.0044564699999938 -1.4272995499999972
Zr -0.6708993999999997 1.9647135300000045 -2.929698949999999
Cu 2.0322999999999993 2.084213730000002 -2.135398849999998
Cu -0.5616006999999996 -0.9768438300000071 -2.2297020499999967
Zr 1.9439001000000005 -0.6313391300000006 -2.261299150000003
Cu 0.8161992999999974 -2.5244436300000075 -1.1105995499999999
Zr 0.8438997999999991 2.5244436300000004 2.3569985500000037
Zr -2.1698999000000008 -2.5127401299999974 0.26580045000000396
Cu -1.5120001000000016 0.14746196999999484 2.2393989499999982
Cu 0.8548001999999997 -0.15514283000000262 2.929698949999999
Cu 2.3301002000000004 1.3173437300000046 -0.07920075000000182
Zr 0.28729919999999964 -2.326544730000009 1.6142997499999971
Cu 2.5124998000000005 -1.1498403300000035 0.4337005500000011
Zr 0.02809999999999846 0.14196117000000186 0.01440045000000012
