12

Cu 1.326086184999994 -1.077249499999998 -1.0711505000000012
Cu 2.1115856849999943 1.3118496000000013 -1.1677796000000007
Cu -0.07961451500000294 0.16584970000000165 -2.5211203
Zr 2.2885800849999924 -0.7091502999999983 1.296819999999999
Zr -0.1363162150000079 -2.53545 0.38888970000000045
Cu -2.9432162150000067 -1.1133499000000002 -0.7144696000000006
Zr -2.167413615000001 1.5596504000000015 0.43820029999999877
Cu -0.37491781500000343 -0.09724999999999984 2.5211203
Zr 0.8357830849999885 2.310449600000001 2.0333197999999997
Cu 2.9432162149999996 2.0818500999999996 0.9066202999999988
Cu 0.059980484999996975 2.53545 -0.9048497000000011
Cu 0.32398048499999277 0.3595506000000013 0.038449600000000306
