16

Zr 2.782431365000008 1.4734811800000074 -0.7276477500000098
Cu -0.8658786349999872 0.16341108000001014 -2.4977473500000045
Cu -1.281958634999988 2.949611180000005 -0.15345185000000328
Cu -1.8513324649999916 2.0712808800000104 -2.7652492500000037
Cu -2.3731296650000004 0.5465511800000087 2.043752750000003
Cu -0.066155634999987 -2.949611179999998 -0.41894715000000105
Cu 0.29880636500001145 -1.8452105799999927 -2.4716510499999984
Cu 2.370761365000007 -1.2797122799999912 -1.8041476499999973
Cu 1.5571173650000105 -1.968310879999997 0.7637539500000017
Zr -2.2902285649999996 -2.2109103799999943 -1.3143481500000078
Cu -2.7824313650000008 0.618700980000007 -0.37314794999999634
Cu 0.9339413650000097 2.47372098000001 1.0228481499999944
Cu -0.3901286349999893 1.4107307800000086 2.7652492500000037
Zr 1.7279623650000104 -0.12623901999999276 2.3643552499999956
Cu -1.6361301649999902 -1.3583102799999907 1.2563534499999989
Zr -0.27100863499998695 0.3267907800000103 -0.006250350000009064
