15

Cu -1.4543476500000025 -1.4498482000000052 -3.0778465499999967
Cu -2.82575035 -0.5336495000000099 -1.3768500499999945
Zr 2.82575035 -0.05185310000000243 -1.3012504500000048
Cu 1.1017512499999995 -2.183246600000004 -1.3479498499999991
Zr -0.5523510499999986 1.104350999999994 -2.455646449999996
Cu 1.3858508500000042 2.4359474000000034 -0.6188468500000042
Zr -2.182249049999996 -1.5283471000000048 1.8230476499999995
Zr -1.8212490499999987 -2.9481468999999976 -1.0141487499999968
Cu 0.9952525500000036 -2.1465493000000038 1.3524513500000026
Zr -0.4390507499999998 -0.42595289999999864 3.0778465499999967
Cu -2.285650249999996 0.7978476999999913 1.2210502499999976
Zr -1.4014492499999989 2.9481468999999976 0.17644885000000698
Cu 0.19605065000000366 1.6585501999999934 1.4148521500000086
Cu 2.193349850000004 -0.012653299999996648 1.7530479500000027
Zr -0.13904765000000197 -0.2743492000000032 -0.3692512499999978
