14

Zr -2.2452984500000035 -2.3213997000000006 -1.4284439000000049
Cu 0.3528994499999989 -1.5579033000000067 -3.0041504000000003
Cu -0.15519914999999784 -2.6937981000000093 -0.12764740000000074
Cu 1.4169978499999978 0.7566947999999911 -2.256546
Cu -2.4628009499999983 0.6351966999999945 -1.2311478000000022
Cu 0.7701014500000021 2.923900599999996 -0.8257446000000073
Cu 1.5848980500000032 -2.923900599999996 -1.8696441999999962
Cu 0.3757991500000024 -2.43770210000001 2.5829544000000055
Zr -2.621599249999999 -1.0235021999999958 1.5375518999999969
Cu -2.4512005499999994 1.5014991999999978 0.9729537999999991
Zr -0.3490010500000018 2.795894699999991 1.8873519999999928
Zr 2.621599249999999 0.194995899999995 0.6641541000000046
Cu -0.18419845000000024 -0.029499000000001274 3.0041504000000003
Zr -0.11969955000000354 -0.14380260000000078 -0.15174860000000479
