12

Cu -0.24924854999999724 -0.1043005499999996 -1.7195510999999968
Cu 1.454753849999996 -2.1755017500000005 -0.9218483000000006
Cu 1.6951484499999978 1.1894997500000013 -2.6147498999999996
Zr -0.6756477500000031 2.4565000500000007 0.13885120000000484
Zr -1.5025520499999985 -2.255700150000001 -0.5294494999999984
Zr -0.9141501499999904 -1.342400549999999 2.6147498999999996
Cu -2.2584495500000017 0.4500989499999992 0.6900481999999997
Cu 1.7543525500000001 -2.4565000500000007 1.7874489000000011
Cu 1.876247350000007 -0.04660135000000132 2.4791488000000044
Cu -0.4115486499999932 1.1340989500000003 2.552448300000002
Zr 2.2584495500000017 1.0310983499999988 -0.20624919999999491
Cu 0.30164715000000086 -0.20500095000000051 0.4899483000000018
