13

Zr -0.3883990500000021 -2.3091010999999995 -2.1268000999999996
Zr -2.1802005500000003 1.8884010000000018 -2.8297600999999997
Cu -2.73880005 -0.45700060000000065 -1.2102503999999996
Cu 1.0479011499999995 -0.3746986000000021 -2.7828001999999996
Zr 2.73880005 1.4313010999999989 -1.0656799999999995
Cu 1.7070999499999981 -1.0405998000000025 -0.7179703999999996
Cu 0.2796001499999985 1.924400300000002 -1.91467
Zr -0.8325996500000006 -1.9489974999999973 0.5929894000000004
Zr 0.99940125 1.3780021999999974 1.5408301000000009
Cu -2.0821989500000004 -0.1468010000000035 2.2189002
Cu 0.29190065000000054 -1.0466003000000015 2.8297600999999997
Zr -1.817298850000002 2.3091010999999995 0.29286999999999974
Cu -0.3232001499999999 0.3969001999999975 -0.36943009999999976
