15

Zr -1.4114512999999995 -2.4843492000000005 0.1402493000000007
Cu -0.45034980000000147 -1.1732492000000008 -1.9864482999999993
Zr 2.2125492000000015 -0.3699502999999993 -2.750448200000001
Zr -0.7190493999999994 1.4578504999999993 -1.9524517000000046
Zr 1.8290501 -2.0257500999999998 -0.48344990000000365
Cu 3.1000499999999995 1.6728506000000003 0.028451900000000308
Cu -2.3739528000000014 2.0978499 0.3741513000000012
Cu -3.1444492000000004 -0.7248507000000011 1.0111484999999973
Cu -1.5481510000000007 0.20105090000000203 2.2846507999999943
Cu 3.1444492000000004 -0.9590502000000001 1.0944499999999948
Zr 0.7546482000000019 -1.365549999999999 2.6716517999999994
Cu -0.5533504000000029 2.4843492000000005 2.195348799999998
Cu 0.46884729999999664 2.4606504000000022 0.18725020000000114
Zr 2.1936473999999997 1.2728511000000005 2.750448200000001
Cu 0.2693501000000005 -0.029848999999998682 0.3136500999999967
