14

Zr 1.9309005500000005 -2.3439464999999977 -0.37689969999999917
Zr -1.5620002500000005 -1.9257487999999974 -1.2616996999999976
Cu -2.673000349999999 0.07685280000000105 -0.6047973999999989
Cu -1.7584991499999951 0.3873540000000055 1.7730026000000016
Cu 1.0377998500000025 -1.0828457000000036 -2.4876976000000006
Zr -1.07189945 0.5362490999999956 -2.790500599999998
Zr 2.210899350000002 0.9811496999999925 -1.646801
Zr 2.673000349999999 -0.08164790000000366 1.4368019000000025
Zr -1.990898149999996 2.8098545000000037 -0.5079993999999992
Cu 0.5513992499999993 2.8375492000000015 -1.6320000000000014
Cu 0.08510204999999971 -2.8375492000000015 1.354099299999998
Zr -0.03289794999999529 -0.8310452000000019 2.790500599999998
Zr 0.19950104999999851 2.001954999999999 1.1991996999999976
Cu -0.07069774999999723 -0.11834529999999788 0.05900190000000194
