16

Cu -2.5957503 2.8410322300000033 0.17885014999999882
Cu 0.8108802000000002 -0.6563494299999917 -2.246652550000004
Cu 0.37838030000000034 1.9676625300000055 -2.158449149999999
Zr 3.1294799 0.2938458699999984 -1.2328510499999972
Cu 1.6129804999999995 1.8398125300000032 -0.06895255000000233
Zr -2.403220100000001 1.4357926300000088 -2.1378497499999973
Cu -3.1294799 -0.7406542300000041 -0.8081492500000031
Cu -1.9045005000000006 -1.566353129999996 -2.8075504499999973
Zr -0.1986203000000013 -2.948051730000003 -1.6489505499999986
Cu -0.5118202999999997 3.056152630000007 0.13735014999999962
Cu 0.671679999999999 0.6354443700000019 2.303647950000002
Zr -1.7070803000000008 -0.7319491300000038 2.8075504499999973
Zr -2.20011 -3.0561526299999997 0.8524494499999982
Cu 2.2057796 -0.9575503300000037 0.8150501500000011
Cu 0.25027989999999933 -2.1963503300000013 1.3771495500000022
Zr -0.36222030000000016 -0.007149029999993672 -0.1504497500000035
