14

Cu -0.6129035999999957 -1.503649750000001 -2.8172998499999995
Zr 1.4353981000000005 -2.8111505500000007 -0.3044003499999999
Cu 2.8791999999999973 -0.7463503500000002 -1.18319975
Cu 0.26739879999999516 1.21945105 -2.531399649999999
Cu -0.33530050000000244 2.8111505500000007 -0.48309985000000033
Cu -1.2845039999999983 -2.6968507499999994 0.9048996500000008
Cu 0.3290977000000055 -2.072649949999999 2.8172998499999995
Cu 2.286701100000002 -0.5759496499999983 1.264899250000001
Cu -2.551097900000002 -1.3814496500000004 -0.9588002499999995
Zr -2.8791999999999973 -0.5759496499999983 1.7046003500000015
Cu -2.3882026999999937 1.2505502499999999 -0.48400014999999996
Cu 2.030300100000005 1.7804498500000001 -0.13269994999999923
Zr -0.01800160000000517 2.0262498499999992 2.061600750000002
Zr -0.07789999999999964 -0.10534954999999968 0.21510035000000016
