16

Cu 0.8435009999999998 -0.40544979999999775 -3.1910991499999994
Cu 2.2171010000000004 0.6415511000000027 -1.2931003500000031
Zr 0.11515110000000028 2.4998503000000003 -1.4031009500000025
Cu -0.21086899999999975 -2.5241498999999994 -0.6554012500000042
Cu -1.7944188999999997 -0.9734505999999978 -1.7813014500000008
Cu -2.3122488 1.421950500000003 -1.3257007500000029
Cu -1.5013888999999998 0.4512511000000021 2.3903980499999946
Cu -2.8834909 -0.21894929999999668 0.5811977500000012
Zr -0.8957887999999996 -2.4336499999999983 2.2750989500000003
Cu 1.5598010000000002 -1.8047512999999977 1.101198249999996
Cu 1.908481 -1.7864503000000003 -1.3895015500000056
Zr 2.8834909 0.6469488999999999 2.5480976499999954
Cu 0.5134610000000004 -0.21994870000000155 3.1910991499999994
Cu 2.1309012000000003 2.5241498999999994 0.3950977499999979
Cu -0.1679788999999996 1.9293508999999975 1.8904972499999957
Zr 0.16711100000000023 -0.09315200000000168 0.16749774999999545
