15

Cu -0.9891509999999997 -0.29989954999999924 -3.3930998
Zr -2.8159484999999975 0.07590055000000007 -2.0033989000000005
Cu -2.9775506000000007 -1.8986993499999993 0.4680012999999992
Cu -3.1223487999999975 0.7395004499999995 0.9942997999999985
Cu 1.5421485000000033 -1.5055995499999995 1.2649011000000012
Cu -0.293750799999998 -2.3710999499999996 -2.247199
Cu 3.1223487999999975 -0.15089944999999894 -0.08389949999999935
Cu -1.5265502999999967 -1.5286994499999995 2.0196999999999985
Cu 1.9225502000000034 1.2606005500000013 2.1087007000000018
Zr 1.6109505000000013 0.06320045000000007 -2.1186991000000006
Cu -0.6067504999999969 1.7428002500000002 -1.9449997000000003
Cu 0.44245140000000305 2.3710999499999996 0.7184000000000008
Cu 0.6477508999999984 -0.73119975 3.3930998
Zr -1.2805481999999984 1.14510005 2.8308000000000018
Zr -0.2362480999999974 0.010700650000000422 -0.026200300000001064
