16

Cu -0.3699003499999991 -0.7721519999999948 -2.88125035
Cu 2.0234999500000024 -1.3759498999999984 -2.2090492500000014
Cu -1.44040065 1.2826500000000003 -1.5586490500000014
Zr -2.42820035 -1.4795494999999939 -0.8111496499999991
Zr 1.6590990499999991 1.4233512000000097 -2.1554489499999985
Cu -2.8073000499999994 0.4752463999999996 0.6543502499999985
Cu -1.0039001499999989 -3.1960487999999962 0.9294509500000014
Cu 0.529999150000001 -2.8329506 -0.698049450000001
Cu 2.8073000499999994 0.02174750000000003 0.2570495499999996
Cu -1.6432004499999993 -1.1759529999999963 2.273651150000001
Cu 1.0048994500000008 -1.7304497999999917 1.5259494500000006
Cu 1.0339998500000016 0.06425090000000111 2.88125035
Cu -1.2975001499999985 2.476253400000001 0.810649849999999
Cu 0.938999550000001 3.1960487999999962 0.17275045000000055
Cu 2.437199950000001 1.5952491000000002 2.098350550000001
Zr 0.11490015000000131 0.2732506000000079 0.41514974999999943
