16

Cu -0.11145110000000003 -1.0639019000000047 -2.281199450000001
Cu -2.148751199999996 -1.3043995000000024 -0.09719944999999974
Zr -0.6031502999999994 -3.2459011000000046 -0.6244992500000013
Zr 1.7644491000000038 -2.555601100000004 -0.22749984999999917
Cu 2.651148799999998 -0.05450250000000523 -1.0595998499999997
Cu -2.661650699999999 2.1288966999999914 0.30060104999999915
Cu -2.0527505999999995 0.6599979000000005 -1.74240015
Zr 0.11944870000000307 1.7109965999999943 -2.7125997500000008
Cu 0.2704497000000039 3.2459011000000046 -0.37609955000000106
Cu 2.1213483999999987 1.7906017000000034 0.504401249999999
Cu -1.5671511000000002 -2.4776020000000045 1.895400050000001
Cu 0.5024480999999987 -1.1098003000000034 2.7125997500000008
Zr -2.639851499999999 -0.10600090000000506 2.0453005499999986
Zr -0.5400515000000006 2.0681973000000013 1.9440012500000012
Cu 2.661650699999999 -0.40860179999999957 1.5150003499999993
Zr 0.1521483000000039 -0.023801800000001094 0.00990014999999822
