12

Cu 0.4623012999999965 -2.511501299999999 -1.4845505000000045
Cu 1.4946994999999994 0.04110329999999607 -1.4291496000000024
Zr -0.5303020000000025 -0.6289025000000024 -2.6955489999999998
Zr 2.377000899999995 -2.6581002 0.4347495999999964
Cu -1.3698997000000013 1.2080039999999954 -0.7955512999999996
Zr 0.38569829999999783 2.8716010999999995 0.5577506999999997
Cu -2.4288998 -0.5085030000000117 0.3285483999999954
Zr 2.4288998 0.3600043999999869 0.8789481999999964
Zr -0.4236011000000026 -2.8716010999999995 1.5763511999999977
Cu 1.4997006000000006 -1.1612969000000035 2.6955489999999998
Cu -0.9885006000000018 0.28550339999998897 2.0857505999999972
Cu 0.11559869999999606 -0.7500953999999993 0.3222503000000003
