15

Cu -2.4583492500000013 -0.8151493000000016 -1.4446487500000025
Zr 1.62435155 -0.7808513000000019 -2.85255055
Cu -0.2903499499999995 -2.154951099999998 -1.0504493500000045
Zr -1.1863498499999992 2.6541500000000013 -1.0549507499999997
Cu -0.7233486500000019 0.4403476999999967 -2.6959495500000052
Cu 2.1287498499999984 -2.041452399999997 -0.7770499500000021
Cu 0.4350509500000008 -2.5336513000000025 1.1007499499999973
Zr -2.0958498500000005 -2.6541500000000013 0.6542510499999956
Cu -1.027349449999999 -1.1622523999999999 2.85255055
Cu -2.8127498499999994 0.022249299999998584 1.1553497499999956
Zr 2.8127498499999994 1.5863475999999963 1.4754485499999994
Zr 1.8818511499999993 -0.849649399999997 2.5942497499999995
Cu -1.1441497500000004 1.9966488000000027 1.9357490499999948
Cu 2.0514507500000008 2.000547400000002 -1.1114501499999996
Zr -0.1537494499999994 0.11084939999999932 0.10945124999999578
