16

Cu 0.9647483500000007 0.7531600499999991 2.7953987
Cu 1.3410530500000064 -1.5843395500000002 2.74230570000001
Cu -0.08565134999999913 -1.4650397500000016 -2.7953987
Zr 1.6542473499999986 -2.230539750000001 -1.0614966999999993
Cu 0.11574935000000863 -2.64526035 0.8902016000000046
Cu -1.9413490499999924 0.14565994999999976 -2.0101967000000016
Zr -2.2969474499999976 -2.4937099500000004 -0.7321967999999899
Cu -1.7203483500000019 1.0315604499999997 2.243801100000006
Cu -3.0543479500000004 0.13766054999999877 0.42760080000000045
Cu 0.15195084999999864 1.21565965 -2.544895199999992
Cu -2.0469474499999976 -1.858540050000001 1.6525001000000046
Cu -1.0665473500000004 2.5931601499999983 0.1506997000000112
Zr 3.0543479500000004 -0.4673399500000004 0.7031059000000042
Zr 1.8149529499999986 2.64526035 0.8863029000000111
Cu 2.293354049999998 1.4195599499999991 -1.2072944999999962
Zr 0.12044904999999773 -0.09954025000000133 0.0924035000000103
