14

Zr -0.6844996999999982 -2.6991996500000024 -1.1099992500000004
Zr -0.1346988999999983 -0.14059824999999826 -3.0585999500000005
Cu 1.5914020000000004 0.9104995500000026 -1.2014995500000003
Cu -2.657899800000001 -1.1106986500000016 -0.14229924999999977
Cu -2.1464996000000003 0.8535995499999967 1.7437004500000013
Zr -1.9629993000000017 1.3851013499999976 -0.8834996500000001
Zr -2.1497002 -2.2658996499999997 2.042900549999998
Cu -0.20759770000000266 0.4939003500000023 2.783800549999998
Cu 1.9463023999999987 -1.0158996500000033 3.0585999500000005
Zr 1.9892024999999958 -1.4757995499999996 0.23180055
Cu 0.6956996999999969 -2.6225986500000023 1.970200049999998
Zr 2.657899800000001 1.1996994500000024 1.33980035
Zr 0.08839989999999709 2.6991996500000024 0.93940015
Cu -0.2721996000000022 -0.24929805000000194 0.40140005000000034
