14

Zr -2.734399800000002 2.8665505000000024 0.06749915000000328
Zr -2.553701399999998 -0.6751517999999948 -1.2926998499999982
Cu -0.8686007999999994 0.8093528999999933 -2.950201049999997
Zr 2.734399800000002 -0.10184859999999674 -1.2219982499999986
Cu -0.24920080000000056 2.9294471999999985 -0.6280994500000006
Zr -0.3112011000000017 -2.9294471999999985 0.5512981500000009
Cu -2.002901099999999 -1.0333518999999995 1.250398650000001
Zr -1.640100499999999 1.4707527000000056 2.425100350000001
Cu 0.4662990000000029 -1.3105507000000074 -1.2661990499999973
Cu 2.4201984000000003 1.1053505000000001 0.8214016499999985
Cu 0.3920994000000029 -1.0094490000000036 2.568399450000001
Cu 1.8515987000000003 1.0087470999999937 2.950201049999997
Cu 0.8240986000000028 2.654849999999996 1.6617985500000003
Cu -0.1685009000000015 0.3261528000000027 0.45699884999999796
