12

Zr -0.32070060000000034 -2.564201350000001 -0.348156000000003
Cu 2.1015004999999984 -1.2919997499999987 -0.6827506999999997
Zr 2.3480997000000006 1.7481994499999978 -0.2838553999999931
Cu -2.3480997000000006 -0.37369915000000375 -0.2224540999999931
Zr -0.9371004000000003 -0.2257995500000014 -2.4008522000000028
Zr -0.6573000000000011 2.564201350000001 1.270946500000008
Cu 1.8898001000000004 0.6384010499999953 -2.762248999999997
Cu 0.09450050000000054 2.0688018499999963 -1.309856400000001
Zr 0.004099800000000542 -2.3377991499999986 2.585849699999997
Cu -0.7547999000000001 0.0610007500000016 2.762248999999997
Zr 2.3338994999999993 -0.0519981499999993 1.9134482999999989
Cu 0.12440010000000079 -0.07130055000000013 0.38554760000000954
