15

Zr -1.1828995000000049 -0.7250462000000013 -2.7790508000000003
Cu 1.6074981999999949 -1.425546599999997 -2.3337497999999997
Zr 1.8096999999999923 2.0836543999999932 -2.489349299999997
Zr -2.788398700000002 -1.4298496000000043 0.12335020000000085
Cu -0.10230260000000158 -2.3581486 -1.0652504
Cu -0.47970580000000496 -1.0832461999999978 2.7790508000000003
Cu -0.662101700000008 -2.6087474999999998 1.0949497000000008
Zr 2.011100799999994 -2.300149900000001 0.6906490000000005
Cu -2.4609986000000106 1.2592524999999952 -0.07074929999999924
Zr -1.4693985000000112 1.8097514999999973 2.352949200000001
Cu -0.8484039000000081 2.057050699999998 -1.9703502999999998
Cu 0.16149899999999207 2.6087474999999998 0.1603507999999998
Cu 1.5963974000000007 0.35245320000000646 2.651449200000002
Cu 2.788398700000002 0.9669474999999963 -0.028549200000000496
Zr 0.3265990999999957 0.1261500999999967 0.06564900000000051
