12

Zr -0.1373023499999988 -0.5767497999999982 -2.7117499499999997
Cu -0.08359905000000367 -2.4326496000000013 -0.1469497499999992
Zr 0.54349895 -1.6626492000000006 2.6807498499999998
Zr -2.750003849999999 -1.4949474999999985 -1.0887489499999976
Zr -2.9827003500000018 1.2571505999999992 1.5854510500000014
Cu -1.7839012499999995 -0.9707509000000023 1.9334506499999993
Zr 1.9803962499999983 -1.0045490000000008 -1.2714500500000003
Cu -0.8947029500000028 2.4326496000000013 0.19894984999999998
Zr 1.48099895 1.8657512000000018 -0.06234934999999986
Cu 2.9827003500000018 -0.018949600000002675 1.2897510500000013
Zr 0.10589985000000013 1.3985499999999966 2.7117499499999997
Cu -0.34189985000000434 -0.08014859999999757 0.6610507499999994
