15

Cu -1.1339006499999993 -1.1483001499999972 1.903664769999999
Zr -2.9096002499999987 0.7465019500000025 1.2655145700000006
Zr 2.456700249999999 -1.2735976499999992 0.7923144700000009
Cu 0.9257993500000001 -0.11800004999999913 2.691334470000001
Cu -0.028599749999999702 -3.0722007500000004 0.6300613300000037
Cu -0.38600064999999795 1.6910019500000004 1.5527747699999992
Zr 2.222298650000001 1.6948013499999988 1.3668546700000022
Cu -1.976500549999999 -2.3567008499999957 -0.06883697000000666
Zr -2.309399649999998 -0.6931991499999981 -2.691334470000001
Zr 0.704998950000002 -2.1787986499999974 -1.960934370000004
Cu -2.0313997500000003 1.512699150000003 -0.9653365700000052
Cu 1.3525000500000015 2.0023002500000047 -2.597737070000008
Cu 2.9096002499999987 0.08440015000000045 -1.3124358700000016
Cu -0.05080125000000102 3.0722007500000004 -0.5230376700000079
Zr 0.1552991499999994 0.25690085000000096 -0.6159331700000052
