16

Cu 1.1574778350000017 0.496751849999999 -1.746550599999999
Zr 2.0607753349999953 -2.0187472500000005 0.4624491000000006
Cu -2.580421864999998 -0.38474845 -1.0738497000000002
Zr -1.1327213650000019 -3.272150049999997 -0.7274503999999986
Cu 0.3386759350000048 -1.4697475499999975 -2.0149507999999976
Zr -0.7719196650000058 0.5855503500000019 -3.3135499999999993
Zr 1.142379334999994 3.272150049999997 -0.4618500999999995
Zr -2.081024664999994 2.319452250000001 -1.0757513000000003
Zr 3.0415196650000027 0.5293522499999987 0.6707487000000008
Zr -3.0415196650000027 -1.565450649999999 1.3126497000000015
Zr -1.4763264650000067 -0.3750476500000026 3.3135499999999993
Cu 1.4285807350000042 -0.6042499499999998 2.408949800000002
Cu -0.12162066500000179 -2.277349449999999 1.791049000000001
Cu -2.4522251649999944 1.771551149999997 1.8107500000000023
Zr 0.2318797349999997 1.9270496499999972 2.168549500000001
Zr -0.44462636499999775 0.13865095000000238 0.2708502000000017
