13

Zr -2.2472496499999988 -0.9992494500000006 -0.8478507999999962
Cu 0.19154935000000073 -2.2175493500000023 -0.4676513
Zr 0.34524915000000256 -0.8036489499999995 -2.800048799999999
Cu 2.4608498500000007 -0.9375486500000001 -0.8283500999999944
Cu -0.4038505499999996 1.4340524499999994 -2.393249499999996
Zr -3.30265045 1.4413499499999993 0.44385150000000095
Zr 1.66135025 1.9883508499999998 -1.0772514999999956
Zr 0.9305496500000014 -1.571349050000002 1.763050100000001
Cu -1.9246501499999997 -1.04975035 1.618850700000003
Cu -0.7307491499999994 2.2175493500000023 0.5028495000000035
Zr 3.30265045 0.6988496499999961 1.2647514000000015
Cu 0.06304935000000178 0.8995523499999969 2.800048799999999
Cu -0.10994915000000027 0.12145135000000096 0.16154860000000326
