13

Zr -1.6461574349999921 -0.5486488499999993 -2.6174487000000006
Cu 0.6953585650000065 -1.7995491500000007 -1.8026485
Zr -0.2607814349999913 -2.825149549999999 0.9470500999999949
Cu -0.920551434999993 2.136550849999999 -1.0557498999999986
Cu -2.670992564999999 -1.9919490499999988 0.16475110000000015
Zr 2.670992565000006 0.34805114999999986 -1.7426509999999986
Cu 0.16291356500001086 1.8141498499999997 -2.7279491
Zr 2.24136256500001 2.3879509500000005 1.1409512
Cu -0.47646643499999186 2.825149549999999 1.2179508000000006
Cu 0.5129085650000107 -0.9854488500000009 2.7279491
Cu 2.1554624650000065 -1.5047493500000009 0.6103496999999969
Zr -1.5567074349999928 0.30075074999999885 1.291250299999998
Cu 0.35596756500000737 -0.05234905000000012 -0.30624960000000456
