15

Zr -1.758450550000001 -1.7975959499999945 -0.5425000499999983
Cu 0.2343492499999993 -1.2103996500000065 -2.649199949999999
Cu 1.8804502500000009 -1.2459983500000007 -1.1975998499999987
Cu -0.038451249999999604 -2.4957008499999986 1.1393999500000005
Zr -1.7889509499999985 0.492702450000003 -2.5688996499999996
Zr 2.79494955 -1.949001349999996 1.0983996500000002
Cu -2.79494955 0.48250195000000673 -0.24160054999999847
Zr 2.7030496499999987 2.0667991500000014 0.21580074999999876
Cu -0.3750505499999992 2.2336005499999985 2.464400750000002
Cu -1.1253500499999998 2.4957008499999986 -0.7771992499999998
Cu 1.0341501500000003 1.0359992499999962 -2.01639985
Cu 0.6440496500000013 -0.8017006499999937 2.649199949999999
Cu -1.7998495499999994 0.1594047500000002 2.3382010500000012
Cu 2.0614500499999995 1.204502049999995 2.6109995500000016
Zr 0.2517499499999989 0.542201949999999 0.3772997500000015
