10

Zr 1.1623005499999994 -0.42114920000000033 -2.117399250000002
Zr 0.3324007499999997 2.3853501999999995 -0.8443012500000044
Cu -1.4923997500000006 0.47675039999999846 -1.1251011500000025
Cu -0.9788994500000001 -2.3853501999999995 -1.2113018500000017
Zr -2.4251999499999997 -0.9822492 0.909498150000001
Cu 0.4012007499999992 -1.5293493000000016 1.5048007499999976
Zr -1.36999945 1.363749499999999 2.117399250000002
Cu 1.4792008499999998 1.644150699999999 1.7721995499999998
Cu 2.4251999499999997 -0.5499506000000007 0.44289964999999754
Cu 0.049100449999999185 -0.043450399999999334 0.19470025000000035
