14

Cu -0.04065005000000044 -1.4147472500000013 -2.8316516500000013
Zr 2.60221995 -1.766149549999998 -1.215951950000001
Cu -0.70760975 1.3919544500000036 -2.889749550000001
Zr -2.3158899500000003 -0.8539485500000019 -1.8829517500000001
Zr 2.25890005 2.6770496500000043 -1.4787501499999998
Cu -0.32889994999999983 2.771951750000003 -1.1342525499999958
Zr -1.14474995 -1.32894705 1.291250250000001
Cu 1.6790303500000001 -1.0922488500000007 1.8864498500000018
Cu 0.15356004999999984 -2.852449449999998 -0.5895518499999959
Cu 2.4375499499999997 0.9726505500000009 0.50414855
Zr -2.6022199500000003 1.1065540500000033 0.5248470500000018
Cu 0.5236100499999998 0.43645284999999845 2.889749550000001
Zr 0.8435300499999996 2.852449449999998 1.2426471499999998
Cu 0.10094015 0.0757503499999963 -0.44555085000000005
