14

Zr -2.596101800000003 -0.40404894999999996 -2.3509491999999987
Cu -1.1387998000000046 -2.3080482500000024 -1.2233495999999988
Zr 1.3678989000000037 -3.308750149999998 -0.5328492999999987
Cu 0.044397300000003526 -1.0444488499999984 -2.9814501
Cu 2.596101800000003 -1.3868484499999987 -1.8446492999999968
Zr 0.14669979999999683 1.7753486500000015 -2.793749799999997
Cu 0.39370149999999526 -2.0988502500000017 2.1734496000000014
Zr -2.2727033 -1.161148149999999 1.231650400000003
Zr 2.4576967999999972 -0.6707496500000012 1.0489493000000003
Cu 0.1354006999999946 0.25365075000000203 2.9814501
Cu -0.8322011000000025 2.251251149999998 -0.19945049999999753
Cu 1.2737978999999946 3.308750149999998 -0.3515499999999996
Cu 2.4574985000000034 1.1869506499999964 -0.6860493999999981
Zr 0.33999820000000014 -0.2429504499999986 -0.3913505999999991
