15

Cu -0.9420509499999987 -0.4041023500000023 -2.8822993999999973
Cu -1.3999499499999999 -2.4933967500000023 -0.9350985999999999
Cu -2.398151349999999 -0.8219031499999971 1.1204014000000022
Cu 1.6561508499999995 -0.9510993499999927 -2.985200899999999
Cu 2.72264865 -0.3553962499999983 -0.7248020000000004
Zr 1.7614478499999997 -2.493099149999992 0.8887005000000023
Zr -2.726551050000001 1.3222007500000075 -1.2986011999999967
Cu 1.5268478499999993 1.1908989500000047 -2.3601016999999977
Cu -0.887750650000001 1.9049034500000062 0.840898499999998
Zr 2.726551050000001 2.3411979500000086 -0.40540119999999646
Cu -0.11474995000000021 2.4933967500000023 -1.6429995999999996
Zr 1.490848549999999 0.826297750000009 2.116098400000002
Cu -1.1834507499999987 0.4650001500000087 2.985200899999999
Cu 0.6267490500000008 -1.213397950000001 2.915201200000002
Zr 0.12594985000000136 -0.23569865000000334 -0.33159829999999957
