14

Cu -2.8654999500000002 0.013601250000000675 -1.2103551500000003
Zr 0.7802996499999999 -0.8657970499999976 -2.92109525
Cu -2.2513003499999993 -2.2209986499999985 -0.15392535000000018
Zr -0.0854001499999999 -3.0086002500000006 -0.7684554499999998
Cu -2.454400549999999 2.0151996499999996 -0.5640653500000004
Cu 2.8654999500000002 0.9070033499999965 -0.09009545000000019
Zr 1.47869925 2.18110085 1.9329043500000007
Cu 1.6282000500000002 -1.244497250000002 0.8269649500000003
Cu -0.4555001499999989 2.870203150000002 -1.8762954500000002
Cu -0.9998002499999998 3.0086002500000006 1.0623747499999996
Cu -1.9231000499999986 0.5708027499999986 1.6345950499999993
Zr -0.19300035000000015 -0.2490978499999983 3.2474452499999997
Cu -1.4396004499999986 1.1149997500000026 -3.24744525
Zr -0.00960014999999892 0.6205005499999956 -0.08581525000000001
