13

Cu -2.295402550000002 -1.3521996000000023 -1.5970501500000003
Cu 0.10680005000000037 -1.1366996999999976 -2.04515025
Cu -1.0508003499999994 0.7569008000000004 -2.21865035
Cu 0.7010993500000033 2.478698699999999 -1.3837493499999995
Zr -2.334899949999997 -2.514202100000002 0.7367491500000005
Zr 0.8111991500000038 -2.7873000999999995 -0.30015035
Cu 2.165897349999998 -0.5825003999999971 1.2046504499999982
Cu -2.8446998500000014 0.11359789999999848 0.7785506499999988
Zr -1.5138015500000002 2.7873000999999995 0.5769496500000004
Cu -0.8516997499999981 -0.17959980000000186 2.21865035
Zr 2.8446998500000014 0.9857978999999979 -1.17495015
Zr 1.1215972500000042 1.8484992999999967 1.7253508500000008
Cu -0.5743026499999964 0.13869860000000145 -0.09005025
