13

Cu 0.8601999 -0.5306297500000001 -2.60204985
Cu -1.4071121 1.0160502500000002 -1.9231500500000003
Zr -0.9177001 -2.7998600500000004 -1.6246498500000008
Cu -0.44299010000000005 -2.3233299499999998 1.1388502500000008
Zr -2.8899701 -1.88008985 0.6460504500000006
Zr 2.1824199999999996 -2.6232701499999997 -0.6641501499999993
Zr 1.8360799 -0.4898997500000002 1.7313490499999986
Zr -2.4627211 0.8685997500000004 0.5950498499999988
Zr -0.37996010000000013 2.359359649999999 1.3965501499999995
Zr 0.6945698 2.7998600500000004 -1.0980500499999994
Zr 2.8899701 0.23140044999999976 -1.3060502500000002
Zr -0.7946301 -0.3008499499999999 2.60204985
Cu 0.02793000000000001 -0.49744995000000003 -0.2880496499999996
