15

Zr 0.2714500500000021 -2.5073508999999987 -2.1354007499999987
Cu -2.8116493499999997 -0.38744919999999894 1.0230007499999978
Cu -1.6153488500000002 -1.9950504000000002 -0.44050025000000304
Cu 0.7912521500000018 -2.9510498 0.8617992500000007
Cu 1.4454498499999993 -1.534250199999999 2.7180004500000017
Cu 2.8116493499999997 -1.7541502999999992 -0.16340065000000337
Cu 1.6888503499999992 -0.3441504000000002 -2.5965995500000005
Cu 2.240249649999999 0.9118500000000012 1.5136013499999983
Cu -1.115249649999999 0.3578492000000004 -2.7180004500000017
Zr -0.18024825000000178 2.9510498 -1.9272994499999996
Cu 1.709449750000001 1.749250400000001 -0.6737003500000007
Cu -1.67184825 2.1565495000000006 0.20030035000000268
Zr 0.2842521500000039 2.2646504000000007 2.1131992499999974
Cu -0.4465484499999981 -0.3525503999999984 2.071199449999998
Zr 0.20375064999999992 -0.2870501999999995 -0.31379895000000246
