14

Zr -0.5732002499999922 -0.7681502999999994 -2.4108801
Cu 0.3317985499999949 -2.2971496 -0.6089796999999999
Cu 1.4855003500000024 1.8447503999999997 -0.8409901
Zr 2.812801350000008 -0.5375500000000004 -0.7739501000000004
Cu -2.8663978500000056 0.008250300000001154 -1.6547399
Cu -0.25629805000000516 2.4776497000000015 -2.2641697
Zr -1.9547004499999971 1.7680502000000002 -0.09179970000000015
Zr -2.6148033499999954 -1.4800500999999988 1.1280403000000003
Cu 1.742702450000003 -0.9113502000000002 2.1915797999999995
Zr -0.0173988499999993 -2.6998501 1.8580398999999996
Cu 2.8663978500000056 1.5367498 1.7854405
Zr 0.36669535000000764 2.6998501 1.5719499999999993
Cu -1.4059028499999968 0.7953501000000012 2.4108801
Cu 0.13630295000000814 0.2919501999999996 0.2620401000000001
