15

Cu -2.8716992999999995 -0.6600494500000043 -0.38930124999999904
Zr -1.0541009999999993 -2.390848150000002 -1.1292991499999907
Cu -0.030400300000000158 1.920150749999996 -2.6619987499999986
Cu -1.161700100000001 -0.8952483500000046 1.5299034499999955
Cu -0.775599500000002 -0.37374885000000013 -2.634098049999995
Cu 1.3217000999999975 -1.7976493500000021 -1.7477988499999917
Zr 1.2983007999999998 -3.1003494500000013 0.4820976500000036
Cu 2.8716992999999995 -1.243148849999999 0.2535972500000021
Cu -1.7291002000000013 2.7282523499999964 0.4320030500000094
Zr 2.5122003999999976 1.7944526499999949 -2.0365981499999997
Cu 0.36049939999999836 3.1003494500000013 -0.2989005499999955
Cu 2.3751001999999986 2.088150050000001 0.5926018499999977
Cu 1.3149996000000002 -0.6964493500000035 2.0760994500000045
Zr 0.48939989999999867 1.9300498500000014 2.6619987499999986
Zr 0.5225000999999985 0.15435024999999847 -0.16869734999999864
