12

Zr 1.5416482150000022 -2.6547348499999996 0.163435199999999
Cu 3.3902322149999975 -0.0034949499999994416 -0.3331049000000008
Cu -1.3700677849999963 -1.5430948500000001 1.7646753999999993
Zr 0.8806342150000006 0.6411449500000002 -2.3653748000000006
Cu 0.9364632150000034 -1.2737047499999994 2.3653748
Zr -1.058429915000005 -1.8789846499999996 -1.3225548000000003
Zr -3.3902322149999975 -0.12542514999999899 -0.09598470000000026
Cu 2.658042215000002 0.2659857499999996 1.9830153999999998
Zr 0.9370602150000025 2.6547348499999996 0.9186450999999995
Cu -1.3406335150000075 1.2324354499999997 -0.832044900000001
Zr -1.774532414999996 0.8740351500000001 1.979385199999999
Cu 0.2417021150000025 -0.18605494999999994 0.2877651999999995
