11

Zr -3.3162921 -0.48900010000000016 0.23756520000000014
Zr -1.587498 -0.2974899000000004 -2.3377347999999993
Cu -1.4677081000000003 2.1622398 -0.2589748999999997
Zr -1.3665982000000003 -0.12741019999999992 2.3460847
Cu 3.3162921 -0.7763498000000002 -0.6565249999999998
Zr 1.7943717999999995 1.8899399999999993 -0.3661048999999994
Cu 1.0166117999999997 -1.9818299000000001 -1.4076845999999992
Zr -0.9593780000000001 -2.1622398 0.9776451000000006
Cu 1.4499018000000001 -0.06978020000000029 1.4252354000000005
Cu 1.8753320999999996 0.2858001999999997 -2.3460846999999996
Cu -0.19710810000000034 0.17373010000000022 -0.35728479999999907
