14

Cu -2.9537505999999993 1.0694751500000002 0.4310545700000006
Zr -1.8072510000000008 -0.43301534999999935 2.393464570000006
Cu -1.2272491000000016 -2.5805549499999993 0.27814487000000554
Cu -1.8972510999999983 -0.6659449499999996 -1.2829752299999981
Zr 2.9537505999999993 1.0685644499999998 0.7272848700000054
Zr 0.3844490000000036 -2.2116851499999997 -1.8452968699999985
Zr -0.5051497999999981 2.5805549499999993 -0.00259542999999951
Cu 2.8501473000000033 -0.9994950499999997 2.51386497
Zr 2.381149300000004 -2.3855452499999994 0.15429497000000225
Cu 0.575550100000001 -1.7810449499999996 2.388724770000003
Cu 0.5230484000000004 0.9398450500000002 2.556394570000002
Cu 2.0080489999999998 -0.38448524999999956 -2.556394569999995
Cu 0.1589507999999995 1.0258846499999996 -1.7706351299999952
Cu 0.3550492000000034 -0.3307852499999995 0.44761477000000127
