15

Cu -2.908449149999999 -0.5911517800000041 1.0192720699999995
Zr -1.2862491499999997 1.1888656799999993 2.819122069999999
Cu 1.2938518499999994 1.2108358799999976 1.6202223700000005
Cu 0.6238498500000027 3.125445880000001 0.05910226999999679
Zr 2.9055499500000046 1.5797056799999964 -0.5032193700000036
Cu 1.1301517499999996 -3.125445880000001 -0.5421977300000052
Zr 2.908449149999999 -1.2275500800000003 0.1475221699999949
Cu 0.50304985 -1.5160479800000104 2.2137720699999974
Cu 1.2813510500000014 -1.8096499800000032 -2.132217169999997
Cu -1.6101513499999989 2.581015479999998 0.6199724700000004
Cu -1.4237499499999977 1.6694854799999987 -1.9399182699999997
Zr -2.2512493499999984 -1.3656497800000125 -1.3612210700000063
Cu -0.5514507499999972 -0.4983477800000031 -2.819122069999999
Cu 1.8375491500000045 0.502195780000001 -2.7981183700000045
Zr -0.12534905000000052 0.27061547999999647 -0.1967677299999977
