14

Cu 1.0650154 1.9694545800000043 -1.3155402000000005
Cu -1.2346649000000003 0.7639744800000017 -2.0666998
Zr 1.0600252000000001 -0.36231868000000134 -3.0378901000000003
Cu 3.2106547 0.4558141800000044 -1.1637300000000006
Zr 2.1363454000000006 1.6453145800000044 1.4579201999999998
Zr -3.2106547 0.5835645800000009 0.3186298999999999
Cu -0.12887480000000018 -2.676024179999999 0.6402999
Cu -2.4650247000000003 -2.0752169800000075 0.6113898
Cu -0.6872549000000001 -2.378218380000007 -1.4974798000000002
Cu 1.7691951000000001 -1.3332201799999979 -0.6639598000000002
Cu -0.8013748999999999 2.676024179999999 0.7662201999999998
Cu -0.011244800000000055 0.8307745800000035 2.9122301999999993
Cu -0.5412750000000006 -1.4108187799999996 3.0378901
Zr -0.0033050000000001134 0.22288448000000471 0.06598009999999954
