12

Cu -2.477100400000001 -1.5422094000000004 0.42595432000000244
Cu 0.8316994000000015 -2.9424698 0.442514519999996
Zr -2.7519989000000002 0.9521705999999992 -0.22765538000000163
Zr -1.6300010999999976 -0.30307929999999983 -2.551294320000004
Cu 2.7519989000000002 -0.16913009999999984 -2.4350454799999994
Zr -0.6954002999999993 0.22757079999999918 2.526824519999998
Zr 0.5485000000000007 2.9424698 0.8026147200000011
Cu 1.7562979999999975 0.6886704999999993 2.0523148199999994
Cu 0.4477997000000009 1.2953704 -2.22209548
Cu 0.9996985999999985 -1.6718395000000004 2.5512943199999967
Cu 0.6356009999999976 -1.585799900000001 -1.7757353800000004
Zr -0.02849959999999996 -0.0311296000000012 -0.007695679999997651
