14

Cu -2.7477016499999998 0.6215199 -2.31391995
Zr -0.14900025000000383 2.0208695999999993 -2.03424985
Cu 1.5680980499999997 -0.3801200000000007 -2.0762801499999997
Zr -0.721601549999999 -1.4332401 -2.6072397499999997
Cu 0.35959815000000006 -2.1428501000000004 -0.027730050000000617
Zr 2.7477016499999998 0.9767897999999997 -0.20244975000000043
Zr -1.8484020500000007 -2.6355298000000005 1.44836995
Cu -2.527200750000002 -0.8287398000000001 -0.3728099499999997
Cu -2.5797024500000028 1.8921501999999997 -0.20514015000000008
Zr -2.0866032499999996 0.7312401 1.8622397500000005
Zr 0.846399250000001 -0.05786010000000008 2.6072397499999997
Zr -0.15130045000000436 2.6355298000000005 1.7939900499999997
Zr 2.6931972500000008 -1.7635700000000005 0.6454000499999992
Cu -0.2526035499999999 -0.04718990000000023 -0.24766975000000002
