13

Zr -1.9493504000000001 2.415586529999999 -0.06895989999999985
Cu -2.052953699999996 0.34752702999999485 1.7176202000000003
Zr -2.5219516999999954 -1.0385231700000048 -0.6419497999999995
Cu -1.4407519999999963 -1.7481331700000027 1.9375598999999997
Zr 0.9473515000000035 1.371506729999993 1.7628401999999999
Cu 0.8108463000000015 2.552717229999999 -0.5180098000000002
Zr 2.5219516999999954 0.29252672999999874 -1.13369
Cu 1.9278507000000005 -1.8484730700000043 0.09223019999999993
Zr 0.8928471000000044 -1.3688530700000072 2.6106899999999995
Cu -0.27935219999999816 -2.552717230000006 -0.6424799999999995
Zr -0.7696514000000008 2.1560068299999955 -2.61069
Cu 0.7819462000000001 -0.7637829700000083 -2.6039999999999996
Cu -0.23225209999999663 0.014596929999996178 -0.11099019999999937
