12

Zr -2.532047300000002 0.46198490000000003 0.49153999999999964
Zr -0.9574471000000102 -0.6169950999999996 -2.4049902000000003
Cu -1.551548100000005 -2.7579949 -1.1790700000000003
Cu 0.8989523999999989 -2.3601248000000004 -1.7992400999999996
Cu 2.532047300000002 -1.0679147000000002 -0.20738029999999963
Cu 1.5717504999999932 1.5161850999999995 -0.41758019999999973
Zr 2.198749499999991 0.2988451000000003 -2.4968500000000002
Cu -0.3954506999999978 2.0913947000000004 -1.8660503000000004
Zr 0.9808462999999961 0.4223749999999997 2.4968500000000002
Zr 0.4866522999999887 -2.7207348 1.3852796000000005
Zr -0.7386513000000008 2.7579949 1.3537397000000002
Cu 0.4129523000000006 -0.35109489999999965 -0.08663039999999977
