14

Cu -2.95740125 -0.22476475000000073 1.064360520000001
Zr -1.7777976500000001 1.1321450499999997 2.9381909199999967
Cu 1.1672019500000026 0.31906524999999997 2.360020519999999
Cu -1.914302850000002 2.3133555499999994 0.6573409199999958
Cu -0.7972984500000031 -2.0878347500000003 1.2675809200000003
Cu 0.23299794999999435 -2.7615548500000004 -1.3969393799999992
Cu 1.6532020500000009 -1.6899646500000007 0.6474108199999975
Zr 2.952999149999993 0.9690052499999999 -0.05019907999999873
Cu 0.35879895000000417 2.76155485 0.5806006199999985
Cu -1.9432029500000034 -1.0031446500000007 -1.428649280000002
Zr 0.339801750000003 -0.4611747500000001 -2.9381909199999967
Cu 2.95740125 -1.22840485 -1.3434873200000084
Zr -0.7784996500000041 2.3136254500000004 -2.0506892800000003
Zr -0.20319745000000822 0.05316505000000005 0.04166071999999588
