14

Cu -2.3472995499999953 1.8520435800000001 -0.1372800999999999
Cu 1.7773036500000075 2.39587358 1.1583799
Zr 0.40690424999999664 2.1299733800000027 -1.1599799000000006
Cu 0.8430996499999992 -0.6847465199999974 -2.59858
Cu 2.2633037500000057 0.38684367999999836 -0.5542297999999999
Zr -0.15570255000000088 -2.395873580000007 -0.5253798000000005
Cu -1.7214984499999986 -1.865371279999998 1.6045201999999996
Cu 2.394399649999997 -1.9866708799999984 0.0670698999999999
Zr 1.8510036499999956 0.02623367999999715 2.6302899
Cu 0.7830028500000026 -2.3436732799999973 1.9351204999999991
Zr -1.2222003499999943 0.46859357999999673 2.584400099999999
Cu -2.394399649999997 -0.7152705800000021 -0.6687699
Cu -1.3331012499999986 1.0736636799999957 -2.6302899
Cu -0.18719674999999825 -0.011026420000000314 0.0659402999999994
