14

Cu -0.49194719999999137 2.0709035799999995 1.142524950000002
Zr -1.8623466000000022 1.8050033800000023 -1.175834850000001
Cu -2.456447599999997 -0.33599642000000074 0.05008535000000336
Cu -1.4261511999999996 -1.0097165199999978 -2.614434949999996
Cu 1.6271478000000101 1.3540837799999963 1.0217750500000022
Cu 2.456447599999997 -0.5402462200000002 -1.0722749499999935
Zr 1.293849999999999 2.7208435800000004 -1.2676946499999957
Zr -2.4249533999999997 -2.7208435800000075 -0.541234750000001
Cu 0.12514879999999806 -2.311640879999999 0.05121495000000209
Cu 1.7862511000000083 -1.0733764200000024 1.2309253499999997
Zr -0.41824720000000326 -0.2987363200000033 2.6144349500000033
Cu 1.2982521000000062 0.5234334800000013 -2.5609828900000053
Cu 0.6045494000000033 -1.9786407800000063 -2.251474849999994
Cu -0.0059470999999931 0.06187367999999793 -0.5700847499999995
