14

Cu -2.3957481499999957 0.6385000000000005 0.5600137200000077
Cu -1.9097480499999975 -1.3705299000000002 -1.1525959799999939
Cu 0.5526466499999927 -1.9726498000000001 -1.654786179999988
Cu -1.2369499500000032 2.5057799999999997 0.22906392000000864
Cu 1.5717506500000056 2.0477798000000007 -0.45670607999998936
Zr -0.6099509500000053 1.2884400000000005 -1.85020587999999
Zr 2.3957481499999957 -0.6948201999999997 0.23528382000000647
Cu -0.11754984999999607 -2.5057799999999997 0.6484141200000053
Zr -1.8278541500000003 1.4119698999999999 3.143494120000007
Zr -2.3220481500000076 -1.7311398999999996 2.031923720000009
Cu 0.569248249999994 -0.7749198000000002 2.3685536200000072
Zr 1.0877495500000052 2.2348602 1.9410042200000106
Cu -0.6055488499999981 -0.9089700999999994 -3.1434941199999997
Cu -0.27665314999999424 -0.07831980000000005 0.43926382000000785
