12

Cu -1.6492536999999956 -2.1423848000000008 0.8570748000000004
Zr 2.6095505000000045 0.6799247999999989 1.4548249000000002
Cu 0.7387467000000001 -2.0249451000000005 -2.1439551999999997
Cu -2.6095505000000045 0.44171499999999897 0.6468749000000003
Zr -1.9825515000000067 -0.7756250000000002 -1.4323949000000002
Zr 1.0231475999999944 -2.7588852000000004 0.6530947999999999
Zr 2.309745900000003 0.1969850000000002 -1.7223848999999998
Zr -1.0900497000000016 2.627785399999999 -0.6352552999999999
Cu 1.5622483000000003 2.7588852000000004 -0.1813349000000004
Zr -0.2848509999999962 0.17079519999999926 2.3588152000000004
Cu -0.04745480000000413 0.9302851999999988 -2.3588152000000004
Cu 0.19915010000000422 -0.0162852 -0.038895100000000404
