15

Cu -1.3588847 -2.8401101000000004 1.2425663200000017
Cu -0.4704151000000003 -0.6760805000000012 2.6904166200000006
Zr -2.8808050000000005 -0.17382030000000093 1.5329864200000003
Zr 2.8808050000000005 0.2627393999999992 0.4406464200000002
Zr -0.7167549000000006 2.527409799999999 1.9183466200000012
Cu 1.3725652999999998 0.4382096999999998 2.621506420000003
Cu -2.7998447000000004 -1.7779601000000005 -0.4469933800000021
Zr -0.7944250000000004 -2.6349805 -2.139612419999999
Cu 0.6558552999999989 -1.9364102 0.10659671999999887
Cu 1.8042049999999996 -0.3714807000000011 -1.7368109200000035
Cu -2.271955 2.052310199999999 -0.9014151200000029
Cu -1.6755947999999998 0.3769895999999999 -2.6904166200000006
Zr -0.13312529999999967 2.8401101000000004 -2.5305121200000045
Cu 1.0802651 2.3688098999999987 -0.37495348000000206
Zr -0.5379648000000001 0.17226999999999926 -0.41941357999999695
