18

Cu -2.0779495499999996 -2.1795797500000007 0.6477496700000032
Cu -1.0666504499999974 -0.46099995000000016 1.9572599700000026
Cu -1.6528473500000018 2.092299949999999 0.8730495699999992
Zr -3.279952949999995 0.22860005000000028 -0.11194013000000069
Cu -0.2384491499999939 -3.0478997500000005 -1.0028903299999996
Cu 0.4947509499999967 -2.62981985 1.2754194700000028
Zr 3.279952949999995 -0.9235701500000002 0.4824697700000016
Cu 2.2632522499999936 -2.9836998500000003 -0.15891053
Cu 0.027946450000001732 0.6004500499999987 -2.991939769999995
Zr 0.4893493499999977 3.0478997500000005 1.1278198700000033
Cu -1.549552950000006 1.3133702499999997 -1.6054422700000046
Cu 0.2997512499999999 2.9326004500000002 -1.3506502299999994
Cu 2.4734496500000063 2.09740015 0.10846987000000041
Zr 2.619949450000007 1.0771899499999988 -2.022937970000008
Cu 0.032348650000002976 1.3089203499999988 2.991939770000002
Cu 1.4026489499999997 -1.42431975 -2.7993433699999954
Zr -2.133247449999999 -1.4517297500000006 -2.084438569999996
Zr 0.20334624999999562 -0.1276202500000001 -0.33689042999999685
