14

Cu -2.8586005499999985 0.6319723299999964 0.14522505000000008
Cu -2.0293007500000115 -1.26235767 -1.9488249500000001
Cu -0.47060015000000277 0.749412030000002 -2.85580495
Cu -1.0101967499999986 2.75807193 -0.7507448500000007
Cu 2.8586005499999985 0.11468222999999966 0.7416253500000001
Cu 2.3024024499999953 0.5631623299999973 -1.6745448500000006
Cu -2.6994972500000003 -1.7954878700000023 0.3543753499999993
Zr 0.46280284999999566 -1.9874495300000063 -2.08940465
Zr 0.6439017499999906 1.216752030000002 2.85580495
Cu -2.01269915000001 -0.06462767000000014 2.0745148500000004
Cu 1.3382987499999999 -2.131553629999999 0.9728750499999994
Zr -1.494197849999999 2.945152329999999 1.6469654500000002
Cu -0.7418022499999992 -2.945152329999999 0.5170349499999998
Zr -0.18619925000000848 0.015471929999996803 -0.05875495000000042
