14

Cu -0.52140465 -2.52168995 -1.1307002500000003
Zr 0.2995152499999998 0.4906901499999998 -2.79268015
Zr -2.0433249500000006 0.14459984999999964 -0.8402801499999999
Zr 0.5499253500000005 -2.8458299499999997 1.64276015
Cu 2.38779495 -1.5047999499999998 -0.27117024999999995
Cu -1.8445548500000006 2.40132995 0.9732097499999997
Cu 0.28966524999999965 1.4835299500000003 1.6964801500000002
Zr 0.12072514999999928 2.8458299499999997 -0.45491994999999985
Cu 2.2100453499999997 0.7566298500000004 0.24823985000000004
Cu -2.38779495 -1.81512035 0.95106015
Cu -0.9302749500000003 -1.2086701499999997 2.79268015
Zr 1.8489251499999995 -0.5242005500000007 2.7781699499999997
Cu 1.4933353499999988 -1.6179900499999995 -2.2666698499999995
Cu 0.3670649499999996 -0.3576603500000006 0.3171500500000004
