12

Zr -0.397655450000002 2.4143380800000003 -1.4884002000000005
Cu -2.122753149999994 -0.08610151999999971 1.9124101000000002
Cu -2.6789512499999972 0.3623785799999979 -0.5037601000000005
Cu -1.667652149999995 2.0809583799999984 0.8057501999999999
Cu -0.8394508499999915 -0.5059414199999992 -2.1544001
Zr 1.595447550000003 1.363678379999996 2.1111195000000005
Zr 2.6789512499999972 1.6183881799999966 -0.6690400000000003
Cu 1.662250549999996 -0.4417415200000008 -1.3104203
Zr -1.7206535499999944 -2.1817330800000008 -0.009569900000000242
Cu 1.3094444500000009 -2.4143380800000074 0.20798989999999984
Cu 0.15504835000000128 -1.7746916199999987 2.1544000999999997
Cu -0.10625075000000095 -0.08786151999999703 0.12390970000000001
