14

Zr -1.6885948500000083 -1.6191353999999998 -1.0044847000000003
Cu 0.10990524999998996 -2.4266453 1.5471954
Cu 0.8631019499999937 -1.1401453 -2.9045248000000004
Cu 0.6006050499999915 1.9864343999999998 1.9796057
Zr 2.167102849999999 -2.5929350999999996 -0.21030470000000046
Cu 2.2834053500000024 -0.5336947999999997 1.3601750999999997
Cu -2.495098149999997 1.4018349000000003 -1.3784846000000006
Cu -1.1796989500000095 2.5929350999999996 1.1086154000000001
Zr 0.2979011499999942 2.5675348999999996 -1.7915047999999998
Cu 2.495098149999997 2.172734700000001 0.28053519999999965
Cu 2.417003649999991 0.6749252999999995 -1.7912845000000002
Cu -2.3847999500000086 0.5581650000000002 0.9665351000000002
Zr 0.10789874999999682 -0.2016949999999995 2.9045248000000004
Zr 0.2724037500000023 -0.13764529999999953 -0.1375046000000002
