14

Zr -2.935901649999998 0.7548064799999992 0.05072950000000054
Zr 0.10860065000000674 2.4910063800000017 -1.8624499
Zr -1.8523979500000038 1.0095162799999997 -2.7294300000000002
Zr -1.785404149999998 -2.0846634199999983 0.23262949999999938
Zr 2.0032997500000036 0.035716580000006104 -1.9352500000000004
Cu 2.119602250000007 2.094956880000005 -0.36477020000000016
Zr 2.935901649999998 -1.4427533199999942 0.3687102999999996
Cu 0.8065986500000051 -2.4910063800000017 -1.2072203
Cu -0.8254051500000017 -1.2849135199999964 -2.1168101
Cu -1.5256004499999918 0.2892766800000004 2.7294300000000002
Cu 0.38599775000000847 -1.8613534200000004 1.3729799000000003
Cu 1.4525947499999958 0.31357678000000533 1.6265495000000008
Zr -0.055904349999998715 2.4269566800000035 1.1795795000000004
Cu -0.053897850000005576 0.20200638000000026 -0.1777498999999998
