12

Zr -1.3926964000000055 2.3681156799999954 2.4461459700000034
Cu -2.4093971000000067 0.307985979999998 1.8047656700000019
Cu 1.1590003999999965 2.8471057799999997 0.5461058700000052
Cu -0.36570360000000335 0.07368587999999932 3.058765870000002
Cu -0.7526969999999977 -2.8471057799999997 1.189425970000002
Cu 1.1342963999999967 -2.05790588 1.6455960700000034
Cu 0.27430339999999376 -2.3524081800000047 -0.9240688699999993
Cu -2.3083991999999967 -0.3644240200000013 -0.6613659700000056
Zr -0.21359630000000607 -0.25550392000000244 -3.058765870000002
Cu 2.4093971000000067 -0.09525422000000106 1.1601658700000002
Cu 2.2662009999999952 -0.6723339199999998 -1.9517635699999971
Zr 0.04439929999999492 0.13720577999999506 0.3831362300000052
