12

Zr -0.4749984999999981 1.2537901500000004 2.815496920000008
Zr -2.4359971000000087 -0.22769994999999987 1.948516820000009
Zr -0.9989014000000083 -2.45860985 -0.11449291999998934
Zr 1.4197005999999988 -1.2014996499999997 2.742696820000006
Zr 3.0960005999999964 -0.3152897499999998 0.42218662000000506
Zr -3.0960005999999964 1.7730601499999992 -0.5568909200000007
Cu 1.6696013999999906 2.0663607499999994 1.1617170200000118
Zr -2.1462020999999964 -0.07857965 -2.815496920000001
Cu 1.3660964000000035 -2.69106985 0.6625367200000056
Zr 1.080001799999991 -0.7032796499999998 -2.6604981199999997
Zr -0.36990360000000067 2.69106985 -1.8679947199999987
Cu 0.1156996999999933 0.25129015 0.04847672000001069
