14

Zr -3.22408985 0.5850286699999998 0.042913820000002545
Zr 1.3867905500000002 1.179451929999999 2.4911139200000036
Cu -1.07346035 1.4031615300000055 1.917073920000007
Cu 2.7368901500000002 -0.03847602999999822 0.5475741200000073
Cu -0.2962596500000001 -0.8042765299999957 2.2116639200000066
Cu 2.0190899499999992 -2.5135736299999962 1.1312940200000057
Cu -1.3158394500000008 -0.024971930000006637 -2.2031196199999954
Zr 0.42319044999999944 2.7877516300000025 -2.216020919999991
Cu 1.1318905499999992 2.8430719300000007 0.37176392000000646
Cu 1.2759898499999998 -1.2128763300000003 -2.4911139200000036
Zr 3.22408985 1.7311816300000018 -1.500917720000004
Zr -2.028300050000001 -2.272171929999999 0.7428638200000037
Cu 0.21358994999999892 -2.843071930000008 -0.5610144199999922
Zr 0.38929015000000033 0.27162837000000195 -0.23791721999999993
