13

Zr 0.4272233149999991 1.752741830000005 2.6633219700000126
Zr 2.156017415000001 1.9442520300000012 0.08802197000000689
Cu -2.057812785000003 -0.09482806999999838 1.853941870000007
Zr -2.172854815000008 2.5284920300000024 1.1773319700000116
Zr 0.11995351499999884 -2.6302819300000024 0.8356318700000074
Cu 2.7378572149999982 -1.1699853299999958 1.2214918700000084
Cu 0.6274133149999983 -1.0876979700000007 2.948152070000006
Zr 0.06649801500000052 0.9581718299999977 -2.948152069999999
Cu 0.17777461499999703 2.6302819300000024 -1.0197462699999917
Zr -2.7378572150000053 0.8606419299999999 -1.5385527699999884
Cu -1.2050126849999998 -1.200083229999997 -1.4465498699999912
Zr 1.9065573150000006 -1.106485830000004 -1.7428526699999978
Cu 0.050605014999995035 0.35615203000000406 0.13985207000001054
