14

Zr 0.6007303999999998 -1.212908270000007 -2.3962997500000003
Cu -1.419519900000001 -1.9620328300000054 -0.7161597499999997
Cu -1.8595205000000004 -0.9891986700000075 -2.9703397500000004
Cu 0.6088299999999993 2.257681329999997 -1.3131699500000003
Cu 2.9338298 0.7193613299999981 -0.2837895500000003
Zr -2.9338298 0.20030172999999252 -0.34868955
Cu -1.0959602000000004 1.541331729999996 -2.26261995
Cu -0.6034703000000015 1.3634214299999954 2.9703397500000004
Cu -1.0196300000000011 -0.7138485700000032 1.7072802499999997
Zr 2.1038297999999998 -1.418878570000004 0.5391102499999998
Zr -1.634830000000001 2.5219311299999987 0.7867202499999997
Zr 1.1076301999999991 2.4717612299999985 1.3049698500000004
Cu -0.1437697 -2.521931130000006 1.4626598499999992
Cu 0.10252999999999979 0.15182172999999466 -0.26158994999999985
