13

Zr 1.42345525 1.1686591799999988 -1.76477
Cu 0.92525485 2.5333891800000004 0.3699398000000005
Cu -1.0367956500000002 1.3923687800000053 -2.33881
Zr -2.1111049499999996 2.5818691800000053 0.2828402000000003
Cu -2.13557515 -2.5818691800000053 -0.7416399999999999
Cu 2.47825525 -1.0901622800000084 -0.8741998999999994
Cu -0.2595949500000003 -0.8150692799999959 -2.0442199999999997
Cu -2.47825525 -0.39666557999999696 -1.8390397999999997
Zr 0.1313552499999986 -2.328466479999996 0.2237502
Cu -0.19690515000000097 1.6677188800000025 2.33881
Zr -2.42877525 -0.8380642800000047 1.5697202000000003
Cu 0.6789551500000002 -0.1403636800000001 2.0941895999999995
Cu -0.5967950500000008 0.4195346200000003 -0.08462999999999932
