15

Zr -2.9243349999999997 -0.00896505000000003 -0.664778730000009
Cu 0.8687349000000002 -1.2881055499999996 2.806181169999995
Cu -0.8360552999999995 -2.0044551499999996 1.8567311699999962
Zr 2.8078351000000006 -2.2675152499999993 0.6617114699999931
Cu 2.9243349999999997 0.7824749499999997 0.3637411699999973
Cu 1.6590352000000004 3.09507515 -0.5803885300000076
Zr 0.2165351000000002 2.9527745499999996 1.3349611699999926
Cu -1.0138048999999998 0.2569746500000005 2.376141269999991
Cu -1.7305149000000006 -2.1176452499999994 -0.13876843000000605
Cu 2.2750345000000007 -1.6676855499999994 -1.6694776700000062
Cu 0.6057352999999996 -3.09507515 -0.396298630000004
Cu -0.5821651999999999 -0.5527157500000004 -1.9821760700000084
Zr 0.8723350000000001 1.5771746500000003 -2.806181170000002
Cu -1.3061050999999995 2.1875748499999994 -0.620318630000007
Zr 0.49443480000000095 0.08150434999999989 0.1952812699999953
