13

Zr -2.133924949999999 0.10687921999999617 -0.6832022700000024
Zr -1.1364245499999992 1.0147027799999933 2.045828870000001
Cu 1.5873751499999997 1.2920326799999984 2.435668970000002
Cu 2.8194747499999995 0.9057225799999955 -0.18157103000000063
Cu -0.08162454999999902 -1.244118680000014 2.936398970000006
Cu -2.8194747499999995 -0.9690256800000014 1.766378870000004
Cu -0.5041251500000001 -2.678322780000002 0.6860089700000032
Zr 2.0041747500000007 -1.5163202800000022 1.3347587700000005
Cu -1.3913245500000002 2.678322779999995 -0.07352112999999605
Cu -1.2472252499999996 -1.377625480000006 -2.936398970000006
Zr 0.7008747500000005 1.566432479999996 -1.9462027700000064
Zr 0.9535746500000002 -1.9444208800000098 -1.9278998699999974
Cu 0.21367505000000087 -0.203225180000004 0.10228907000000476
