9

Cu -2.1472496999999997 0.48648643000000646 0.28796510000000053
Cu 0.00474980000000258 2.321866530000001 -0.9040548999999998
Cu -0.9151501 0.10017633000000359 -2.3292748999999997
Zr 2.1472496999999997 0.940286130000004 -0.5899049999999995
Zr -1.7304500999999988 -2.321866529999994 -0.8129450999999999
Zr 1.4352498000000011 -1.6827674299999984 -2.0636447999999996
Cu 1.7321495999999996 -1.5807700299999965 0.8001749999999999
Zr -0.04815049999999843 0.29307653000000755 2.3292749
Cu -0.15895030000000077 -0.47447366999999474 -0.30377509999999974
