15

Zr -2.2547993500000008 -2.71609495 0.9397607200000024
Cu 0.4690003499999982 -2.43876505 1.3296008200000031
Cu -2.246699750000001 0.7544946500000003 2.0228905200000042
Zr -2.6209998500000005 2.1241045499999998 -0.5880093799999955
Cu 0.07830004999999929 -0.7838253499999994 3.052270920000005
Cu 2.0808006499999987 0.09038495000000024 2.6074209200000027
Cu 2.6209998500000005 -0.6033849500000001 0.1375808200000037
Cu 1.701099949999998 -2.8250751499999995 -1.2876391799999993
Cu -0.19109965000000173 2.8250751499999995 -0.4195494799999935
Cu 0.1590000499999995 1.584485050000001 1.8167209200000016
Cu -0.8404001500000007 0.37491465000000046 -2.452768319999997
Cu -2.5096993500000018 -1.0524749500000001 -1.1795892799999947
Zr -0.417500050000001 -2.16436525 -3.052270920000005
Cu 1.8382001499999987 0.60857495 -1.6089792799999927
Zr -0.30759955000000083 -0.22491504999999945 -0.12157917999999768
