14

Cu -1.6054997500000008 -2.9548653000000007 -1.3075599499999995
Cu -1.9962000499999997 -1.2999256 0.41511014999999984
Zr -2.38209965 -0.7410152999999999 -2.7587399500000003
Cu 2.38209965 -1.1858252 0.10443015000000022
Cu 0.5464997500000015 -1.1194852000000006 -2.4995799499999998
Zr 0.3424992499999986 1.7175548000000003 -2.17738015
Cu 0.10619974999999915 3.1482752000000005 -0.0010700499999996005
Cu -1.9155000499999995 1.0683848000000005 -0.8204398500000001
Cu -0.6101002499999995 -1.8471454000000005 2.7587399500000003
Cu -0.9475998500000005 0.06949439999999996 1.9224696499999996
Zr 0.4935994500000005 -3.1482752000000005 0.7337498500000001
Cu 1.8379006500000008 -1.0492552000000002 2.271239750000001
Zr 2.051899550000001 1.4969251000000003 1.1873402499999997
Cu 0.006300549999999738 -0.42571530000000024 -0.0297398499999999
