11

Cu -2.70625015 0.39995974999999984 0.0844302499999996
Cu -2.166050949999998 -0.29381015000000055 -2.3854098500000003
Zr -0.023551050000000906 -1.6753905500000004 -2.07125995
Zr 2.70625015 -0.87054045 1.0235705500000005
Zr 0.47844975000000023 1.7793195499999994 -1.39006995
Zr -2.218951249999999 -2.3226001500000004 0.8479199499999996
Cu -0.8746500499999987 -0.2235801500000001 2.3854098500000003
Cu 1.2893494500000005 1.0054696499999993 2.1749005500000003
Zr -0.6606511499999987 2.3226001500000004 1.3015103499999991
Cu 0.5845498499999993 -2.16486045 1.2839198500000002
Cu -0.33045104999999975 -0.36015014999999995 0.21860024999999972
