13

Zr -1.9790001000000021 2.788276180000004 -0.14144942999999444
Cu 2.6910000000000007 1.1080251200000006 0.5421905700000025
Cu 1.6040000999999986 1.9464263800000055 -1.6860895299999967
Zr -2.6910000000000007 0.16522262000000154 -1.6151892299999986
Zr -0.185899700000002 -0.21837568000000118 3.301350169999999
Zr 1.7016009999999984 -1.292579179999997 -0.9713392299999981
Cu 1.6590995999999993 -0.7223810799999981 1.7576503700000004
Zr -0.7772999000000009 -2.788276180000004 -2.205409529999997
Cu 0.5221003999999976 1.4481463800000043 1.4446707700000019
Cu -0.8445988000000018 -1.7133783800000018 0.8131804699999989
Cu -2.3941002000000022 0.26722002000000344 1.248630570000003
Cu 0.866500799999999 0.2562184200000033 -3.3013501700000063
Cu -0.2810992999999993 0.2098241200000004 -0.3138895299999973
