13

Cu -1.1356506499999988 0.6901800499999999 1.448312020000003
Zr -3.0846500500000005 -0.7753398500000004 0.5273220200000068
Cu -1.3431492499999997 1.6720002499999995 -1.0905978799999971
Zr -0.6419506499999983 -1.6767199500000003 2.184682120000005
Zr 1.3692493500000005 1.9123498499999996 -2.4145820199999974
Cu 2.5981502499999998 -0.29880975000000065 -1.835407779999997
Cu 1.6449489499999999 -0.2525799500000008 2.4145820200000045
Cu 2.4893493500000012 -1.7819898500000009 0.5623223200000069
Zr 3.0846500500000005 0.7146498499999994 0.2913320200000058
Zr 0.5472507499999999 2.4511196500000003 0.8536623200000051
Cu -0.40984914999999944 -2.4511196500000003 -0.11620787999999038
Cu -1.2297497499999999 -0.6368101500000001 -1.9620678799999922
Cu 0.4484500500000017 -0.2374599500000003 -0.4111177799999979
