13

Zr -1.9053589000000002 -2.5799849000000004 0.729775470000007
Cu -3.205305 -0.11130500000000065 0.8541054700000075
Zr -0.17656479999999997 -2.3884747000000006 -1.8455245299999987
Zr -2.5663729 0.7158948999999994 -1.799034529999993
Zr 0.04433499999999979 -2.218395 2.838294970000007
Cu 1.2138250999999998 -1.9172547 0.134925470000006
Zr 3.2053049999999996 -0.2010448000000009 0.12610537000000477
Cu -0.7889649000000001 0.34073569999999886 2.549355670000004
Cu 0.26268519999999995 1.6652853999999992 -1.6914944299999988
Cu 1.7868350999999998 0.5673249 -2.8382949699999998
Cu 2.4281253 2.5799849000000004 -0.14379452999999387
Zr 0.43322510000000003 2.5146849 1.4663553700000023
Cu -0.056774900000000184 0.07125499999999985 0.23323537000000272
