15

Cu 1.5176506000000014 -0.6220853500000003 -1.5522600999999994
Zr -2.015449500000001 -1.1599652500000004 -0.6138202999999991
Cu -0.27394870000000004 1.2873748499999995 -2.2317401999999995
Zr -2.5311489 -1.5824454500000003 2.2135103000000016
Zr 0.4272499000000014 -2.0613453500000003 1.043539800000001
Cu 2.7141494999999995 -0.6372053500000008 1.2734397000000004
Cu -2.2772503000000004 0.8720447499999993 1.301790000000001
Cu -2.7141494999999995 1.0784847499999999 -1.8340403999999997
Zr 1.6164512999999996 2.0664942500000003 -0.28747999999999907
Cu 0.6593514000000003 -2.8357450500000003 -1.257350199999999
Cu 0.17035100000000192 -0.6144755500000003 3.0588100000000016
Cu -0.6950492999999991 1.6220943499999998 3.1032102
Cu -0.7154502999999988 2.8357450500000003 1.030720000000001
Cu -0.16054920000000017 -1.02143555 -3.1032101999999995
Cu -0.06645009999999907 0.3055546499999999 0.30716970000000066
