15

Cu -2.7940502499999997 -0.663488430000001 -0.8447008300000007
Zr -1.2464504500000029 3.142293930000001 -0.40476083000000074
Cu -0.9089508500000019 1.073113830000004 -2.21690083
Zr 1.1962489499999993 2.2409138300000038 1.2525992699999975
Zr -0.8113499500000021 -2.1658917299999985 -1.5021505300000015
Cu -0.8538513500000011 -1.5956936299999995 1.226839069999997
Cu -1.9908505500000029 0.5748338300000029 0.9138594699999985
Cu 1.417249649999997 -3.142293930000008 -0.08713053000000315
Cu 1.4283504499999982 1.4665141300000002 -1.048290729999998
Cu 1.821249049999997 -1.224493030000005 -1.670460730000002
Zr 2.7940502499999997 -0.2845898300000016 0.9327292699999958
Cu 1.0882491499999976 -2.3218899299999975 2.350769569999997
Zr -0.02245145000000015 0.5221118700000034 3.3659596700000023
Cu 1.4663486499999987 0.64238383 -3.3659596700000023
Cu 0.17804905000000026 0.23471256999999923 0.011379269999999053
