14

Cu -1.631499299999998 -1.220954380000002 1.1889511199999987
Zr -0.08389950000000113 2.58482798 1.6288911199999987
Cu 1.340600000000002 -0.32275338000000175 2.0450312199999985
Zr 0.35120099999999965 -2.7233576799999994 0.5315014199999979
Cu -0.8282996000000011 0.01736788000000189 2.947511419999998
Cu 2.5909014 0.9090481799999992 0.9853612199999944
Cu 2.9837999999999987 -1.781958980000006 0.3631912199999974
Zr -2.9837999999999987 0.6408477800000014 -1.8077105200000005
Cu 1.7710007999999995 2.7233576799999994 -0.8604987800000004
Zr 0.12550059999999874 1.760687879999999 -2.947511419999998
Cu -1.7361001999999992 2.1930780799999994 -0.2888987800000038
Cu 2.6288996000000004 0.084917879999999 -1.3323077200000029
Cu -0.48389919999999975 -1.1745600799999991 -1.7985095200000103
Cu 0.2536000999999999 0.5156478800000031 -0.18324888000000072
