13

Cu -2.9975500000000004 0.38199612999999744 -0.6894245500000005
Cu 2.50385 1.7596059299999993 -1.7907948500000006
Zr 0.5548505999999982 0.29408602999999545 -2.7117848500000004
Zr 2.9975500000000004 -0.6072940700000018 -1.0544247500000004
Cu 0.2930497999999986 2.326096029999995 -0.7961745500000004
Cu -0.1895495000000018 -2.2733740700000027 -1.3931645500000003
Cu -0.0251494000000001 -1.3354338700000028 2.7117848500000004
Cu -1.3777495000000002 1.747615929999995 1.26687575
Zr 1.081549599999999 1.2605357300000009 2.59138545
Cu 2.740651100000001 0.83957573 0.9608454500000003
Cu -2.0825491000000014 -1.422714170000006 0.37589505
Zr 1.778849600000001 -2.326096030000002 1.05893565
Zr 0.039151199999999164 -0.12839416999999997 0.11554575000000034
