14

Cu 1.1183004500000013 1.518561829999996 -2.3545801500000003
Cu -0.46580024999999914 2.4462018299999997 -0.4951503500000003
Zr -2.414799650000001 0.9806819299999958 -1.41614035
Cu -0.9903001499999977 -1.926899430000006 -1.0000002500000003
Zr -2.93049905 0.5582017300000004 1.4111902500000006
Cu 2.0068006500000006 0.10283182999999951 2.1013595499999997
Cu 2.3147993499999995 1.5034418299999999 0.47111964999999945
Cu 3.159199750000001 -0.025968070000004673 -1.38114005
Cu -3.159199750000001 -1.5867781700000023 -0.09752004999999997
Cu 0.2600012500000002 -0.695097870000005 -2.05967025
Zr 1.6257010500000018 -2.446201830000007 -0.07865024999999992
Cu -0.22899914999999815 1.5261716300000003 2.2564899500000006
Zr -1.1908006499999981 -1.6395001300000018 2.3545801500000003
Zr 0.027899750000001333 0.07930182999999857 0.24121974999999996
