12

Cu -2.9807491499999994 0.8794284300000044 -0.2476853000000001
Zr 0.2589511499999997 1.3765183300000032 -2.3216451
Cu 1.3408508500000007 -1.3138084299999946 -2.5077851
Cu 2.9807491499999994 0.20298863000000011 -0.8262747000000004
Cu -1.5711498499999994 -1.2112083300000052 -0.8419254999999999
Cu -1.1462497500000008 -2.3819084299999957 1.0608846
Cu -1.5083503499999988 -0.0530513699999986 1.9223854
Cu -1.1420498500000011 1.8162284300000024 -0.06654530000000092
Cu 0.010450350000001052 1.7524486300000035 2.5077851
Zr 1.51035115 2.381908430000003 0.28945459999999956
Zr 1.4306507499999999 -2.2655066300000044 0.14370459999999996
Cu 0.2607498500000016 0.24203843000000091 -0.1582249
