15

Zr -2.0008497500000004 -0.37093781999999464 -1.6264249999999998
Cu 3.21955015 -0.9847978199999972 0.3231752000000001
Cu 0.2860498499999977 1.0532021800000066 -1.3965251000000003
Cu 1.130450249999999 -0.4762077199999979 -3.2487847999999997
Cu 1.3876504499999989 -2.4380445800000032 -0.3605253999999998
Zr -0.40304845 -2.89644148 -1.9462949999999997
Cu -1.8670492500000009 -0.5429778199999973 2.1497847999999995
Cu -2.25774865 1.0759319800000071 0.3888452000000009
Zr 0.1427507499999976 0.758102380000004 3.2487847999999997
Zr -0.5284490500000025 3.1109418800000057 0.7741753999999994
Cu 1.4504499499999994 -1.2798876199999967 2.4037855
Cu 1.8167504499999971 0.5893921800000044 0.4148547999999992
Zr -3.21955015 -2.089739779999995 0.4869354000000006
Cu -0.30404945000000083 -3.1109418800000057 1.195585
Cu -0.02194885000000113 -0.3474078199999937 0.2337148
