13

Cu -1.272049899999999 -0.57202485 -2.4982001499999997
Cu -2.8561505999999994 0.3556151500000002 -0.6387703499999997
Zr -2.362450599999999 -2.01128485 0.09759975000000054
Cu -0.38354969999999966 -1.98775485 1.9577395500000003
Cu 0.7688494000000006 -2.1165547500000006 -1.5247600499999994
Zr 2.8561505999999994 -1.4906649500000002 -0.11622024999999958
Zr 1.3641500999999998 0.38008494999999964 -1.7957503499999996
Zr -1.1732492000000008 2.1165547500000006 -1.2334200499999994
Zr 2.2074499000000003 1.6508555499999993 1.0374200500000006
Cu -2.6193494999999984 -0.56441505 2.112869950000001
Zr -0.8900499000000011 1.4705948499999995 2.4982001499999997
Cu 1.4551495999999986 -1.05095485 2.1388795499999995
Cu -0.07555100000000081 -0.5871448500000005 0.32749965000000003
