15

Cu -0.07259939999999965 -1.2245787199999967 2.4519402500000003
Cu 0.26950070000000004 -1.0364485199999933 -2.29690005
Cu -3.006099700000002 0.8134212800000071 0.7322399499999999
Cu -2.1616993000000004 -0.7159886199999974 -1.1200197499999995
Zr -1.5663986000000012 1.7806510800000055 -1.3910100499999998
Cu 1.0075015999999994 -2.780425579999992 0.10238005000000028
Cu 2.647399899999998 -1.2636285199999975 1.78389045
Zr 1.1047019999999979 1.3649310800000052 -2.89961975
Cu 3.006099700000002 -1.0140185199999934 -0.22854974999999955
Zr -0.7230988000000007 3.0514216800000042 1.4421603500000004
Cu -1.9044991000000007 -2.6778254800000028 1.7682396500000004
Cu -1.3546981999999996 -3.051421679999997 -1.2448199499999997
Cu -1.4753991000000024 0.34961128000000485 2.5436198499999993
Zr 1.1770018999999987 0.9152912800000053 2.89961975
Zr -0.07439810000000158 -0.09009881999999436 0.28852005000000025
