13

Cu -2.653650299999999 -0.6411201499999999 -0.7660779799999915
Zr -1.7328510000000001 1.50868965 -2.769542219999998
Cu -0.5039501000000008 -0.7024699500000002 -2.1903679799999978
Cu 1.818449000000001 -2.50610995 -0.9695181799999943
Cu -1.4571514000000008 -0.6562401500000004 2.059621820000004
Cu -0.6127509999999994 -2.1856500500000005 0.2073621200000062
Zr 1.4745501999999995 -1.55976025 1.615901920000006
Zr 2.653650299999999 -0.10473034999999964 -1.5722378799999959
Zr -2.5548496000000007 2.0474594500000007 0.49870212000000436
Zr 0.8258495000000003 1.5817602499999994 2.7695422200000053
Cu 0.444549600000002 2.50610995 -1.1767678799999928
Cu 2.427148800000001 2.27266965 0.5758218200000016
Zr -0.01745030000000014 0.3109896499999998 -0.06362817999999493
