13

Cu -2.6841010999999995 -1.081142920000005 -0.13167475000000062
Zr -0.17839809999999545 0.7181668799999983 -2.32541515
Cu -2.325401299999996 -0.8315329200000008 -2.14411495
Zr 0.4375 2.9555372800000015 0.20749484999999934
Cu -1.5909003999999953 1.0889367799999974 0.06945514999999913
Zr -0.9034003999999953 -1.1594033200000027 2.0249853499999992
Cu -0.014400399999999536 -1.6440129200000015 -2.34368515
Cu 0.3879013000000029 1.1816868800000009 1.8178844499999989
Zr 1.9334984000000048 -2.2001230199999995 1.13401505
Cu 2.493999500000001 -0.06481312000000372 2.34368515
Cu 2.6841010999999995 1.4130868799999945 0.17498504999999964
Cu -0.4015006999999997 -2.9555372800000086 -0.11935515000000096
Cu 0.22270199999999818 -0.43221332000000245 -0.05102535000000019
