14

Cu -2.9293003000000013 -1.0420700500000004 -0.8088488799999993
Cu -0.6069011999999994 -2.84571005 0.4120009200000041
Zr -0.950800000000001 -1.8993603500000003 2.9974210200000044
Zr -2.4428005000000006 -0.028610450000000398 1.3178909200000035
Cu 1.7298984000000033 0.49601965000000003 2.061301020000002
Cu 2.9293003000000013 0.3220293500000002 -0.25125877999999346
Cu -1.9808005999999985 2.1665098499999997 0.20475122000000567
Cu 0.0017986000000007607 1.93306955 1.95734092
Cu 2.1538982000000004 -2.07713005 0.3892009200000004
Zr 1.128198600000001 -1.90219045 -2.9974210200000044
Zr 0.32089990000000057 2.84571005 -0.7707212199999987
Zr -1.2716008000000016 0.8454096499999997 -2.0821226199999927
Cu 1.5916003999999973 0.8250897499999992 -2.5897214200000036
Zr 0.22830009999999845 -0.4443304499999998 -0.19071877999999742
