14

Cu 0.3946018499999937 -1.2925004999999996 2.2830897
Cu -2.5533008499999994 1.6274796000000005 -0.2290500999999998
Cu -2.1535014500000003 -1.6918200999999997 0.19000010000000023
Zr 0.6093998499999955 2.095250100000001 2.5416098999999996
Cu -1.4190005499999998 0.22864960000000023 2.4035701999999994
Cu -1.3538989500000014 1.4534893000000007 -2.5416099
Zr 2.5533008499999994 -1.1795401 -1.8982800999999996
Cu 1.1094990499999966 1.3556699999999995 -2.5178201000000002
Cu 2.011400249999994 1.4063998000000004 -0.22292990000000001
Cu -0.12869835000000052 2.5043000999999996 -0.18929000000000018
Cu 0.157499449999996 -2.5043000999999996 -0.009570099999999915
Cu -2.1293010500000022 -0.9456700999999996 -1.9011502000000005
Cu 0.16509824999999978 -2.19143 -2.4621601
Zr -0.006498249999999928 -0.14212029999999976 0.008699900000000316
