16

Cu -0.07529830000000359 -2.8926849499999996 -0.30494544999999995
Zr -0.4763983999999972 -1.7423047499999997 -2.5793352499999997
Cu -1.888900699999997 -1.3715348499999998 -0.18446495000000063
Cu 1.5415000999999968 -0.19378464999999956 -2.81096505
Cu -3.083000199999997 0.7945556499999995 -0.5969548499999995
Cu -0.5985984999999978 0.9041156499999996 -2.7773251500000002
Cu 1.0807990999999966 2.62598515 -1.9797854500000005
Cu -2.3315009999999994 -0.09048454999999933 1.7260651500000002
Cu 0.08990100000000112 -1.2787847499999998 1.5639643499999991
Cu 3.083000199999997 0.8621855499999995 -1.0158152500000002
Cu 2.3861007999999977 -1.04738475 -0.07893505000000012
Cu -1.0876999000000005 2.489185450000001 -1.1543450499999999
Zr -0.16149900000000272 0.7884655499999997 2.81096505
Zr -1.7597999000000009 2.8288851499999996 1.3295645500000006
Zr 1.6432990999999966 2.8926849499999996 1.7827649500000007
Zr 0.13949969999999823 0.4950656500000008 -0.04642525000000042
