15

Zr -1.709999149999998 -2.798805 0.35091541999999976
Cu -3.153800950000001 -0.26359490000000063 -0.2686245800000009
Cu -2.2518997500000033 -0.2128650999999997 2.0262656200000038
Cu -0.04579914999999701 -1.4382049999999995 2.5694756199999986
Cu 1.7173995499999997 -2.2052552999999997 0.28935521999999736
Zr -3.014697950000002 2.3409049000000004 0.13122552000000098
Cu -0.7434006500000017 2.149905000000001 1.8388056200000022
Zr 0.48619844999999984 2.798805 -0.8568744800000019
Zr 1.6103019499999967 0.8981444999999995 2.160085620000004
Cu 0.3872985500000006 -1.4131452999999996 -1.9019723200000058
Cu -0.9090996499999981 1.5183552000000007 -2.5694756199999986
Cu -1.928298950000002 -1.2637050000000003 -2.320673520000007
Cu 1.7206992499999991 0.5406844000000004 -1.8718743199999963
Cu 3.153800950000001 0.1449047999999995 -0.10735468000000026
Zr -0.44850165000000075 0.18396450000000053 -0.24349457999999657
