13

Zr -2.0508995 -1.6654350499999997 -0.0031949999999993928
Zr -1.4350014000000044 0.5719353500000008 2.529715
Zr 0.5088995999999995 -2.70285485 -1.9101749999999993
Cu -0.9349022000000033 -0.16764475000000045 -2.529715
Zr 1.7703970999999967 0.2799146500000007 -2.5045849999999996
Cu 2.1730996000000005 -1.3422548499999993 0.30838520000000047
Cu -2.1730996000000005 0.9809853499999996 -0.2011848999999999
Zr -0.7957992000000047 2.4368550500000006 -2.1298649
Cu 1.4754980999999958 2.245855150000001 -0.42228479999999946
Cu -0.4937020000000061 2.70285485 0.5963547999999999
Cu 1.5084990999999945 0.9390552499999996 1.5603250000000002
Cu 0.811599699999995 -0.9705150499999999 2.4972052000000002
Cu -0.03300100000000583 -0.11691494999999952 -0.23482479999999972
