12

Zr -1.825199149999996 -1.06909965 -1.9064850999999998
Zr -0.5637016499999987 1.9136698500000007 -2.5008951
Cu -2.3670997500000013 1.5168402500000004 -0.23113490000000025
Zr -1.3353004499999983 -2.6278498499999996 0.1060051999999998
Zr 1.1411018499999983 -1.56213975 2.1973948
Cu 2.3670997500000013 0.024650349999999932 0.49640510000000004
Cu 1.6021995500000017 -0.47554994999999955 -1.9680453000000004
Zr 1.4951019499999987 2.6278498499999996 -0.0973149000000002
Cu -0.8255996500000009 2.5728104499999995 1.5640148999999997
Cu -1.5224990500000004 0.66324015 2.5008950999999997
Zr 1.2580986500000009 1.3460705499999994 2.4545844999999997
Cu -0.16099914999999498 0.29150035000000063 0.31207509999999994
