13

Cu -1.3397501499999969 1.730857880000002 -2.0527195999999996
Zr -2.51405145 -1.1884923199999946 -2.2587895
Cu 1.1883487499999994 1.464007880000004 -1.8683895999999995
Cu 1.2870502499999965 -0.8478021199999972 -2.5451999
Cu -0.5526523499999989 0.7389278800000056 2.5451999
Cu -2.7012500500000023 2.1025976800000024 0.13610040000000012
Cu -1.3984507499999985 -2.774830880000003 0.7332006
Cu 1.6185474499999977 1.008677480000003 1.5862002000000004
Zr 0.07934764999999899 2.7854280800000026 0.08978980000000014
Cu 2.7012500500000023 -0.8542022199999977 -0.17261929999999914
Cu 0.8439502500000025 -2.7854280799999955 -0.5953002000000005
Cu 0.9259471500000025 -1.3318323199999966 1.7022004000000006
Zr -0.03764915000000357 -0.12278221999999772 -0.1673998999999995
