15

Cu -2.590099249999998 -0.06637999999999922 -0.48104475000000013
Zr -1.2879982500000047 -1.9200201 1.40427495
Cu 1.4779013499999998 -0.3926100999999993 -2.56707475
Zr 2.590099249999998 -2.1919001999999996 -1.08603475
Cu -0.8269005500000013 -0.8334302999999994 -2.7611651500000005
Cu 0.03670114999999541 -2.6450399999999994 -0.9735250500000006
Cu 1.8373984499999985 1.5681796000000001 -0.9006347500000005
Zr -0.9339981500000043 2.2699694999999998 -0.8904347500000003
Cu 0.36819834999999657 -0.7885603999999993 3.15787505
Zr -1.171001450000002 0.9881901999999996 1.6614646499999997
Zr 2.2378997500000004 0.021359900000000653 1.1804752499999993
Cu 0.8600997499999998 2.6514401 1.2374153499999996
Cu 1.4509009500000012 -2.6514401 1.3990555500000004
Cu 0.6095008499999999 1.5167297999999998 -3.15787505
Cu -0.0620003500000017 -0.3332299999999999 -0.29671475
