12

Cu -1.5972995999999995 0.20520019999999972 2.923939220000001
Cu 2.362199799999999 0.9366597999999997 1.4348292199999975
Zr 2.3141993999999997 -1.4741101999999997 -0.6319808800000004
Zr -0.6886004999999997 -2.0948600999999996 -0.5637309800000025
Zr 1.0548000000000002 -1.65347 2.1346192199999976
Cu -2.362199799999999 -0.29500009999999977 0.45948881999999713
Cu -1.4985981000000024 -2.1066097999999998 2.2471289200000015
Cu 1.2943020000000018 1.2328401000000002 -1.144138820000002
Cu 0.3020992000000007 2.1066097999999998 2.320019219999999
Cu -0.9257983999999979 2.0551599999999994 0.06277891999999952
Zr -0.7369976000000023 0.7411698999999996 -2.923939220000001
Cu -0.057397899999998 0.14582010000000034 0.6535792199999975
