13

Cu 1.0025481999999961 -0.2553653500000008 2.826585769999994
Zr 0.9545477999999967 -2.6661353500000002 0.7597756699999962
Cu -1.417049500000001 -1.0462050500000002 2.045335769999994
Cu 2.285450000000001 -0.6111450500000002 0.938455569999995
Zr 0.41814799999999863 2.50643495 1.5211057699999984
Cu -0.43984990000000224 0.8769850499999992 -2.826585770000001
Cu -2.285450000000001 0.8631348499999989 1.4545354699999962
Zr -2.096649200000005 -0.45085525000000093 -1.5321826700000045
Zr 2.1236495999999967 -1.344085250000001 -1.8942889700000123
Zr -1.1424522999999986 2.6661353500000002 -1.0702838700000044
Cu 1.7820471999999974 1.2793345499999988 -1.1875858699999995
Cu -0.23805240000000438 -2.5716953500000006 -1.4308872700000066
Cu -0.06534960000000112 0.04081494999999968 0.24761772999999465
