14

Zr 2.2772946649999994 1.9577390800000032 1.2597873199999938
Cu 1.9006763649999954 0.5611492800000022 -1.263682580000001
Zr -0.32278346500000765 2.7334892800000006 -0.2262026800000001
Cu -2.4214848650000036 1.7394992799999969 1.6269171199999946
Cu -2.4774846649999986 0.024199179999996545 -0.821042680000005
Zr 0.31511866499999996 0.39453918000000243 2.94208742
Zr 1.9700248649999992 -2.4252846800000043 -0.5679027800000043
Cu 2.4774846649999986 -0.8827007200000025 1.5446174200000016
Cu 0.8770985649999972 -2.7334892800000006 2.5123975200000004
Cu -1.5603856650000054 -1.4736855800000086 2.4670875199999998
Zr -0.7903813650000089 -2.5920860800000014 0.49494722000000024
Zr -0.887785865000005 1.065639179999998 -2.94208742
Cu 0.6450586650000005 -0.9950859799999989 -2.850084520000003
Cu -0.20774143500000264 0.11016917999999976 0.45040721999999533
