14

Cu -2.0995502499999965 -1.6997297499999995 1.2173535700000073
Zr 1.1791476500000009 -1.9282100499999997 2.4031336700000097
Zr -1.0766506500000013 0.46501035 2.656383770000005
Zr 2.0312480499999985 1.3587500499999994 0.32981463000000844
Zr 0.3328494500000012 -1.6491897499999997 -2.360584469999999
Zr -2.2613506500000007 -2.43266995 -1.61539097
Cu 0.12294964999999891 -2.4357497499999994 0.025516230000000917
Cu -0.7397518500000011 1.3192498500000003 -2.268886869999996
Cu 2.8947505500000013 -1.4080698499999995 0.21181083000001166
Cu -2.60295305 0.19074984999999955 -0.9086878699999872
Cu -2.8947505500000013 2.4357497499999994 -0.7429849699999878
Cu -0.7617512499999997 2.1287505499999995 0.19710893000000596
Zr 1.6988505499999995 0.7485101499999995 -2.656383769999998
Cu -0.5368519500000026 -0.18763944999999893 -0.1304895699999875
