15

Cu -2.213951099999999 -1.2455599999999998 0.5184499999999996
Zr -2.914150199999998 1.1850196999999993 -1.0695498000000008
Zr -1.1254500999999983 -0.6618397999999996 -2.2819297
Cu 1.172748600000002 2.1619903000000007 -0.6971400000000001
Zr 0.9140510999999982 -3.0506898999999996 -1.5651200000000003
Cu 1.7676505999999996 0.6213104 -2.61111
Zr 2.914150199999998 -0.8811800999999995 -0.6487000000000007
Cu -0.5794486999999968 2.1338903000000005 -2.0510800000000007
Cu -0.4210509000000009 -1.5187098999999997 2.2909100000000002
Zr -2.7944488000000014 1.2824900000000006 1.8461105999999994
Cu 1.5179520999999987 -2.4335897 1.2071202000000003
Zr 0.013149299999998476 1.1290103999999999 2.61111
Cu -0.8734512000000016 -2.9981297000000002 0.2106306999999994
Zr -0.5675506000000006 3.0506898999999996 0.7348701999999996
Zr -0.023651099999998593 0.024029899999999937 0.20143060000000013
