13

Cu -2.5685500999999995 1.7850615800000043 1.3083768200000065
Zr 1.4076500000000003 1.631731380000005 1.2914166200000068
Zr 2.5685500999999995 0.7134811800000023 -1.7244731799999897
Zr -2.1103515999999978 -2.927880480000006 -1.6489831799999948
Cu -1.9893493999999983 -0.8347866800000006 0.9557266200000072
Cu -2.553150200000001 -0.3467799800000009 -1.2929029799999938
Cu -0.44134910000000005 -0.744782679999993 2.8889265200000054
Cu 1.3145485000000043 -3.0238811799999965 -1.2725429799999972
Zr -0.1169509999999967 -2.6321804799999953 0.6594367200000093
Cu 1.0837478000000011 3.0238811800000036 -0.9077329799999916
Zr -1.039352399999995 1.6521513800000065 -2.0962431799999948
Zr 0.44264980000000165 -0.9227840800000067 -2.8889265199999983
Cu -0.21454999999999913 -0.14828607999999832 -0.5084333799999925
