14

Zr 0.03880114999999762 -1.4266305499999992 -2.481405
Zr 0.674001650000001 1.84564015 -2.3429448
Cu -1.3573969500000018 -2.97904015 -0.625584799999999
Zr -2.862199750000002 0.5835599500000002 0.7784050000000007
Cu -1.2736987500000012 -2.4451704499999996 1.4300048999999997
Cu 1.3354015500000003 -1.5444503499999995 2.1712053
Cu 0.9150028500000005 -2.86378055 -0.10669450000000014
Cu 2.369100549999999 -0.05377014999999963 -2.318475
Zr 2.862199750000002 -1.2146802499999994 -0.25109509999999924
Cu 2.0168018500000002 1.4190998500000007 -0.29720519999999917
Cu 0.7161998500000024 1.0903100499999998 2.481405
Cu -0.5543994499999982 1.9262399499999998 -0.025494799999999262
Cu 0.31559945000000056 2.97904015 1.7418048000000002
Cu 0.49970055 -0.1064100499999987 0.04400520000000041
