16

Cu -0.23840020000000006 -1.3313026499999943 -2.6586017500000025
Cu 0.37684989999999985 0.9430999500000006 -2.545099350000001
Zr -0.4306600000000005 -3.1049995499999987 -0.4149990500000058
Cu -2.1165702 -0.7747992499999974 -1.4855023500000044
Cu -2.4688003 -0.8730011499999968 0.9423999499999951
Cu 2.1754697000000007 -0.38170244999999525 -2.1980000500000045
Cu 2.4837401000000003 -2.090599049999998 -0.8916988499999974
Cu 2.175389599999999 -0.16110234999999662 1.167001650000003
Cu 1.1243002999999998 -2.465499949999998 1.4407978499999956
Zr -2.4837401000000003 1.991798350000007 -0.5146999500000078
Cu 1.0824797000000004 1.4833984500000064 1.94999885
Cu -1.3907702000000004 1.9058990500000057 1.7090014500000024
Zr 2.1411201999999996 1.9932975500000047 -0.9128017499999999
Cu -0.11998010000000026 3.1049995499999987 -0.6362971500000043
Zr -0.3919499000000002 -0.8509025499999971 2.6586017500000025
Zr 0.10249970000000008 -0.07830044999999686 -0.1334972500000049
