17

Zr -1.3930033999999942 -2.7331981499999998 -1.0122985500000006
Cu -3.202501299999998 -0.161600049999997 -0.6003990499999965
Cu -0.8912029000000068 0.2604007500000023 -2.5700988499999973
Cu 2.008798599999995 -0.6939983500000011 -1.7941969499999963
Cu 0.17640120000000437 -1.955999349999999 -2.5764999500000023
Cu 3.202501299999998 -0.7423992499999983 0.2749024500000026
Cu 0.1189976000000037 -2.637800150000004 1.6375007500000045
Zr -2.441400500000004 -1.7913989500000014 1.6867027499999985
Cu -0.9495983000000017 0.687002249999999 2.2761002500000025
Cu 1.7889958999999926 -2.91950035 -0.02489854999999963
Zr 2.3623982000000048 2.055002250000001 -0.5979003499999997
Zr 2.196298599999995 -1.6667003499999993 2.552101150000002
Zr -0.6947994000000044 2.91950035 -1.547798150000002
Cu -2.089502300000003 1.661401749999996 0.11440275
Cu 2.0916003999999937 1.2034015500000024 2.5764999500000023
Cu 0.521898299999993 2.6592006500000025 1.6070022500000043
Zr 0.22339819999999477 -0.28359795000000076 0.037403149999999385
