17

Cu -0.48920465 -1.1887002500000001 3.125499750000003
Cu 0.7162549500000002 -1.8994002500000011 -3.125499750000003
Cu -1.68761465 1.1011995500000005 -1.1870994500000052
Cu 1.2758853499999998 0.9192995499999981 -3.0219993500000015
Cu 0.5913350500000001 -2.6573005500000004 -0.13429644999999368
Zr -1.2151548499999998 -2.92850065 1.424701650000003
Cu 1.5039756499999997 -2.0936007500000002 2.07920455
Cu 2.2031352499999994 -1.36710025 -1.2898979499999967
Zr -1.8280346499999998 -1.4945005499999997 -2.0783958499999926
Cu -1.0178849499999996 2.7611002499999984 0.5970039500000013
Zr -2.86884475 -0.5458999500000008 0.6542014500000022
Cu -1.4250047499999998 0.8278002499999992 2.901897450000007
Cu 0.4062649500000002 1.6902002500000002 2.1222038500000053
Zr 2.8688447499999996 1.6653990499999978 -0.8962974500000058
Cu 2.84432485 -0.554700350000001 1.2781029500000045
Zr 0.025325049999999738 2.92850065 -1.76900105
Zr 0.23930534999999997 -0.029301249999999612 0.019397749999995995
