13

Cu 0.8954193999999998 -2.5277004000000005 -0.24920275000000203
Zr -1.1391904000000004 -1.8052005999999992 -2.5335998500000017
Zr 2.021219500000001 -1.5328007000000028 -2.6413002500000005
Zr 2.375720300000001 0.34770019999999846 -0.5524024499999953
Zr -1.207110199999999 1.4139003999999957 -1.8545990499999974
Cu 1.185220000000001 1.6965999999999966 -2.7269020499999996
Cu 0.8588202000000003 2.5277004000000005 -0.48329925000000173
Cu -2.7765199999999997 -0.7119005999999999 0.03569794999999942
Cu -1.102739999999999 -2.0411014000000023 0.9328994500000007
Cu 2.7765199999999997 -1.081102399999999 1.387699150000003
Zr 0.7315199999999997 -0.40690040000000494 2.7269020499999996
Cu -1.8151499999999992 1.393301000000001 0.9768982499999979
Cu 0.09931970000000057 -0.5468997999999985 -0.6445007499999988
