11

Zr 1.511347415000003 -2.2528000000000006 -0.24954984999999397
Zr 2.625602415000003 0.26229860000000116 0.12805174999999736
Zr 0.5460970850000066 -1.225299900000003 -2.593551649999995
Zr -2.4293057150000053 -0.9758988000000031 -1.6526488500000056
Zr -1.424705214999996 -2.7118988 0.1658478500000058
Cu -2.625602414999996 0.9141005999999976 0.17974854999999934
Zr -0.026504214999995668 -0.42839810000000256 2.593551649999995
Cu 0.9883774150000022 2.7118988 -0.6094512500000064
Cu -0.8122021149999981 1.8166999999999973 -1.900550850000002
Zr -0.4615018149999983 2.5142020999999986 1.5866470499999963
Cu -0.32510341499999384 0.23379899999999765 0.027648949999999672
