13

Cu -1.563200000000002 -0.6810454499999921 -2.0904999500000017
Zr 1.2142010000000028 1.4406509499999984 -1.9634991500000005
Cu -1.2343005999999974 2.001647949999999 -1.6429005500000002
Cu -2.4172001000000023 -1.0800475499999962 0.7236995499999992
Zr -2.5473994999999974 1.475151050000001 0.6996001499999984
Cu 1.056096999999994 -1.806747449999996 -2.192998850000002
Zr -0.2566012999999998 -2.5361480500000013 -0.043499050000001205
Cu 1.6675014000000061 -1.2942504499999998 2.1284999499999984
Cu 2.260702100000003 -1.6044464499999904 -0.06719975000000034
Zr 2.5473994999999974 1.1300506500000083 0.905099749999998
Cu -0.8267001999999977 0.31954954999999785 2.192998850000002
Cu 0.06059829999999522 2.5361480500000013 0.9456004500000006
Cu -0.08830059999999662 0.1801529500000001 -0.011499450000002298
