16

Zr -3.235750150000001 -1.5053996999999981 1.2226028999999983
Cu -2.496850949999999 -0.34990109999999675 -1.0806960999999973
Cu -2.0782507500000023 1.8042011000000002 0.6265029999999996
Cu 1.6615505500000012 -1.7082005000000038 -1.0392989999999998
Zr -0.6392498499999988 -0.7072009999999977 -3.4253006
Cu -1.0624503499999989 -2.270097800000002 -0.8119964999999922
Cu 3.235750150000001 0.6527997000000028 0.06600190000000339
Zr -1.468950249999999 2.307001100000001 -2.105400099999997
Cu 1.669349650000001 2.2590008000000026 0.7028046000000074
Cu 1.3314495499999985 0.8706989000000007 -1.9067000999999948
Cu 0.40704914999999886 -2.355798700000001 1.5139999000000017
Cu -2.0228499500000012 0.3832988999999998 2.315605099999999
Cu 0.22294995000000029 -0.5628986999999981 3.4253006
Zr 2.680650749999998 0.606302300000003 2.466606100000007
Cu -0.14265054999999904 2.355798700000001 1.8204041000000046
Zr 0.0016498499999997307 -0.11329849999999908 0.143005500000001
