11

Zr 0.17326974999999978 2.6966009300000024 -0.7042250500000002
Zr -1.63322015 -1.5287008300000053 1.4063349500000002
Cu -2.2884499500000004 0.3984994699999902 -0.1588153499999998
Cu 1.1140099499999994 -2.016707430000011 1.4309349499999997
Zr -0.5415501500000004 -2.6966009300000024 -1.1587953499999997
Cu -0.5106801500000002 0.09549806999999078 -2.26768495
Cu 2.28844995 -1.0447073300000085 -0.3367651500000002
Cu 1.94576985 1.1404962699999999 -1.43416495
Cu -0.3647002500000007 1.0628976699999981 2.26768495
Zr 1.99524985 0.6990975699999922 1.97459505
Cu 0.04769994999999971 -0.20230773000000113 -0.12990524999999975
