11

Zr 1.3650181650000022 -2.3845500999999985 -0.6292486000000004
Cu -0.012986734999998362 -0.6102503999999982 -2.149048799999999
Cu 2.1501482649999986 2.1219502000000006 -0.6743497000000005
Zr -0.7502286650000016 1.926847500000001 -2.421448699999999
Cu -2.1635282650000036 1.9079495000000009 -0.4589490000000005
Zr -0.10399683499999668 2.3845500999999985 1.2002497000000005
Zr 0.1371731650000001 -2.025449700000003 2.421448699999999
Zr -2.1330259650000087 -2.062051799999999 -0.42074870000000075
Zr 2.1635282650000036 0.2832469999999958 1.9666511
Cu -2.0516279650000016 0.24124719999999655 1.4337510999999985
Cu -0.09373673500000024 0.18464850000000155 0.1792498000000009
