12

Zr -1.5297012499999987 -0.49399754999999956 -2.62829975
Zr 1.1893997499999962 -2.478799849999998 -0.965898450000001
Cu 1.9542999499999958 -0.08519924999999873 -2.547399549999998
Zr -3.351600649999998 1.0505008500000024 -1.2640991499999998
Cu 0.15229795000000124 2.009500550000002 -2.5847988499999985
Zr 1.5622978499999967 2.116102250000001 -0.13640024999999767
Zr -1.8452986500000002 -1.134099850000002 0.6433010500000016
Cu 1.6287002499999979 -0.8886966500000035 1.0342007500000001
Cu 3.351600649999998 -0.12819864999999808 -0.6512985499999999
Cu 0.43140035000000054 0.7888012500000023 2.62829975
Cu -1.2662009500000018 2.478799849999998 -0.11439894999999822
Cu 0.15159995000000137 0.2394008499999991 -0.8062992499999986
