16

Zr 0.8138484499999983 -1.7127990499999992 -2.0726499500000006
Zr -0.6997509499999985 0.1089020499999993 -3.0061502499999992
Cu 2.6874484500000015 0.006301950000002776 -1.2943487499999993
Cu -0.5524502500000033 3.166599249999999 -1.3871488500000009
Cu -1.9876499500000016 -1.1969985500000018 -0.992249450000001
Cu -2.358949650000003 1.4374008499999977 -0.7345495499999988
Zr -3.0799503500000007 -0.5354995500000026 1.3715505500000003
Cu -1.019952749999998 -2.0891990499999995 2.2260503499999995
Cu -0.897050850000003 -3.166599249999999 0.2672510500000005
Zr 1.8141498499999962 -1.0552997500000014 2.528550149999999
Cu 1.7755489499999975 2.1351014500000023 -0.4811487500000009
Cu 3.0799503500000007 -1.904600150000002 0.14445014999999906
Cu 2.140748949999999 1.3880996500000027 1.7803506500000008
Zr -0.6181507500000016 2.918399850000002 1.2434511500000003
Cu -0.047849649999999855 1.1513024499999975 3.0061502499999992
Zr 0.14974785000000068 0.2623023500000006 0.1356515500000004
