11

Cu -1.0767536 -1.7062511999999979 -1.7227505999999995
Zr 1.6321468999999986 -1.086950299999999 -2.2490492
Zr 2.285047500000001 -1.2160510999999987 0.5958491000000006
Zr 3.20965 1.346448999999999 -0.7431496999999982
Zr -3.20965 0.07384870000000188 -0.4433506999999981
Zr 0.47224999999999895 1.8101501000000004 -2.1611508999999973
Cu -0.8791523000000048 2.600950199999999 -0.10834979999999739
Cu -0.04175000000000395 -2.600950199999999 0.7114497000000011
Cu -1.3988514000000016 -0.061950699999997916 2.2490492
Zr 1.091047299999996 1.1365490000000014 2.0660506000000023
Cu 0.14295009999999664 0.013250300000001936 -0.1944493999999981
