17

Zr -1.354049650000002 -2.473402 -0.5243015
Cu 0.54185105 -1.7531986000000046 -2.7331027999999975
Cu -1.1464500500000003 1.9591999000000015 -0.1078013999999996
Cu -2.039550750000002 -0.1710987000000017 -1.7530002999999965
Cu 0.2625503499999997 0.7468013999999954 -3.2777996000000016
Zr 3.03025055 -0.9702015000000017 -1.5034008000000014
Zr 1.917249749999998 1.8415012999999973 -1.5081996999999987
Cu 1.2592506500000002 -2.6162014000000013 -0.21430019999999672
Cu -3.13895035 -0.16319850000000002 0.21959869999999881
Cu -2.1783504500000017 -0.26189990000000307 2.2173976999999994
Cu 3.13895035 0.7549992000000003 0.9736004000000023
Zr -0.06204985000000285 -1.9515019000000038 2.6859989000000013
Cu 2.6561508499999977 -1.4097995999999995 1.3489970999999983
Zr -0.8512496500000015 1.787500399999999 2.4100971000000015
Cu 1.8064499499999993 0.2367992000000001 3.2777996000000016
Cu 1.6572494500000001 2.6162014000000013 1.1715985000000018
Zr 0.4466495499999983 0.0804004999999961 0.27789880000000267
