16

Cu -0.4646531000000067 -2.2775001999999986 -1.0883941500000063
Zr 0.7654495000000026 -0.5969964000000019 -3.1166000499999953
Cu 2.911147999999997 -0.21429830000000294 -1.2802962499999992
Cu -2.9044494000000043 1.326198600000005 0.011199949999998182
Cu -1.4545516999999961 2.0853004000000013 -1.8607940500000026
Cu 1.3768462999999969 1.5835989999999995 -1.161598149999996
Cu -1.9714507999999995 -0.5396995999999987 2.4906006499999975
Zr -2.911147999999997 -1.1201972999999938 -0.47999564999999933
Cu -0.6636505999999969 -2.433597600000006 1.8258057499999936
Cu 1.5557479 -2.6000021999999987 0.0829010499999967
Cu 2.418647699999994 0.8493003999999971 1.474205050000002
Zr 1.9746475000000032 -1.8290977999999924 2.9485016500000043
Cu -1.4165497000000045 1.8600044000000011 1.531799349999993
Cu 0.8229522000000031 1.117603300000006 3.1166000499999953
Cu 0.792152399999992 2.6000021999999987 1.3822022499999989
Zr -0.0628510000000091 -0.15469739999999632 0.38260654999999844
