15

Cu -1.4853516000000084 -1.9313993499999995 -1.4108494999999994
Cu -1.2605514000000042 0.7292013500000003 -2.3556508999999988
Zr 1.444847099999997 -2.7137002499999987 -1.3149499000000002
Cu 2.9899521000000036 -0.058300949999999574 -1.1653509000000017
Cu 2.4641494999999978 -1.847298649999999 0.9444494999999993
Zr 1.2303466999999912 1.6696996500000019 -2.6050501000000015
Cu 1.4587478999999988 3.1827001499999987 -0.2752503999999991
Cu -0.4297485000000094 -3.1827001499999987 0.16895009999999822
Zr -2.9899521000000036 -0.6676988499999972 0.5204496999999986
Cu -1.1493529999999978 2.30720045 0.049050400000000494
Cu -1.4825516000000007 0.8882017500000039 2.3014497999999985
Zr 0.03414919999999455 -1.2055997499999975 2.6050501000000015
Cu 2.8703537000000026 -0.16209884999999602 2.2185506999999998
Zr 1.1207504999999927 1.530901950000004 2.3216504999999987
Zr 0.36284640000000223 -0.26279924999999693 -0.02724920000000175
