13

Zr -0.12255094999999727 -0.577449749999996 -2.63405515
Zr -2.51774975 0.7007484500000025 -0.6779747500000006
Zr 1.8985481500000034 2.052551250000004 -1.4472051499999994
Cu -1.8588523499999994 -0.5247497500000016 2.0271548500000005
Cu -1.4587516499999964 -1.7626495500000026 -0.27776524999999985
Zr 0.770446750000005 -0.27135085000000103 2.63405515
Cu -1.779552449999997 1.9367484499999996 1.2545547500000005
Zr 1.25664905 -2.5422515499999996 0.8149547500000001
Cu 1.9901504500000016 -0.7897491500000022 -0.9202146500000001
Cu -0.5086517499999985 2.5422515499999996 -1.0534048499999997
Cu 0.4709472500000018 2.423049950000003 2.11835475
Cu 2.51774975 0.9996490499999986 0.8140553500000003
Cu 0.250747650000001 0.3237495499999987 0.10986515000000097
