12

Zr -1.642848949999994 1.02174385 -1.9236488499999993
Cu -1.6813469499999982 -2.1607513500000053 -1.0971489499999976
Zr 1.2637519500000067 -0.6629561500000065 -2.3648490499999966
Cu 2.149547550000001 -2.309852450000001 -0.6726494500000015
Zr 2.0347481500000058 -0.47365565000000487 1.997554749999999
Cu 0.7172508500000063 2.3049469499999944 -2.170047849999996
Cu 2.657451650000006 1.5243454500000055 -0.9194450500000002
Cu -2.657451650000006 -0.1383514499999947 -0.057148050000002115
Zr 0.280452750000002 -2.854949949999998 1.254154149999998
Zr -0.700748449999999 0.04324344999999852 2.3648490499999966
Zr -0.1220512500000055 2.854949949999998 0.5566520500000038
Cu -0.08874884999999466 0.0994491500000052 -0.1001473500000074
