15

Cu -0.6624012500000056 -0.3196487500000025 -2.9726991500000004
Cu -1.9139995500000033 -0.5900497500000021 1.48759935
Zr -2.73340035 -0.3196487500000025 -0.9504003499999989
Zr -1.2320995500000045 -2.7419509499999997 -1.6783990499999994
Cu 0.41660114999999465 -1.577850350000002 2.019200350000002
Zr 1.6229991499999947 -1.9122505499999995 -2.4362001499999977
Cu 1.265199649999996 -2.570251450000004 -0.0968999499999974
Cu -1.1913013499999998 1.608451849999998 0.83100035
Cu 0.49590104999999696 2.7419509499999997 0.1603994499999999
Cu -0.32179835000000523 0.8636512500000002 2.9726991500000004
Cu 0.9250011499999964 0.9572487499999944 -2.241400649999999
Zr 2.73340035 1.2026481499999981 -0.7272996499999991
Cu 2.347898449999999 -1.1648483500000033 1.0763998500000014
Cu 1.8494014499999984 1.0013504500000003 2.182999650000003
Cu 0.026800149999996137 -0.4886512500000002 -0.13329974999999905
