12

Cu -2.026674715000013 -0.3778991999999981 -2.4452990999999997
Zr -0.5492730150000114 2.0564994000000034 -1.9419003000000004
Zr -1.1481728150000095 -0.17250069999999695 2.4452990999999997
Cu 1.8617595149999957 0.728599500000005 -0.047101999999995314
Cu 1.5031097150000008 -0.7205009999999952 -2.017599099999998
Cu 2.4470696149999966 1.7823981999999994 -2.3967991000000026
Cu -2.394770115 -2.2098999 -1.4532985000000025
Zr 1.0495276849999868 -2.2602005 0.5806980999999922
Cu -0.03367081500000779 -2.1491013000000017 -2.175897599999999
Cu -2.4470696150000038 0.1131972999999995 0.06270019999999477
Cu 0.06702948499999195 2.2602005 0.9580021000000016
Cu -0.07087181500000383 -0.1004028999999953 -0.48049730000000324
