15

Zr 0.0683517000000009 -3.336750000000002 -0.6130504000000023
Zr 2.7403487999999996 -1.2871512999999979 -1.2623501000000026
Cu -3.2227516000000023 0.3427466999999993 0.6611499999999957
Zr -1.4292488000000034 2.9408531999999994 0.691148799999997
Zr -1.9856491000000034 -1.335452999999994 2.1566487000000016
Zr 0.562851000000002 0.17084890000000286 -2.9246501999999985
Zr -1.9013480999999999 -1.0310478000000032 -1.2182521999999985
Cu -0.4609488999999982 2.3862496000000064 -2.1945514999999993
Cu 0.6432495000000031 -1.5200538000000066 1.065748199999998
Zr 2.987251299999997 1.549648299999994 -0.9125499999999995
Cu 3.2227516000000023 -0.39764779999999433 1.666448599999999
Cu 0.9372520000000009 3.336750000000002 -0.3150501000000041
Cu -1.7289505000000034 0.8504524999999958 2.9246501999999985
Zr 1.0760497999999998 1.4342461000000029 2.02215
Cu 0.12305070000000029 0.2573508999999987 -0.03365129999999894
