14

Zr -1.5750994500000006 0.16125104999999706 -2.6318350000000006
Cu -1.207599150000001 -2.313148550000001 -1.0448251000000006
Cu 1.1357007500000007 -2.288646750000005 -1.7366552000000004
Cu 2.6789002500000008 -1.194847150000001 0.5940151
Cu -2.6789002500000008 0.9643516499999976 -0.1849551000000007
Cu -0.5867990500000007 2.005352049999992 -1.2687750000000007
Zr 1.7563004500000003 0.7709503499999997 -2.3752651
Cu 1.4995007499999984 2.906948050000004 -0.15491480000000024
Zr 0.5179009500000005 -2.906948050000004 1.181924799999999
Cu -1.732299349999999 -0.19694905000000063 1.8485651
Cu 0.7406010499999978 0.09565354999999442 2.6318350000000006
Zr -0.975900150000002 2.1529502499999964 1.5906248000000005
Cu 2.4104009499999988 1.3583526500000005 0.9465447000000005
Zr 0.4606995500000002 -0.34584805000000074 0.012165099999999818
