11

Cu -2.6702003500000018 -0.5198011499999993 -1.2539896499999985
Cu 0.5853996499999994 -2.1773004500000006 0.242709650000001
Zr -1.47659685 2.1773004500000006 -1.1198897499999996
Cu -1.7987975499999962 1.641999349999999 1.534109550000001
Cu 0.9349022500000004 1.4625005500000015 -1.7175898499999986
Zr -2.4082984499999966 -1.5036992500000004 1.3085102500000003
Cu 0.6578025499999995 2.04090025 1.2351097500000003
Zr 2.6702003500000018 -0.06650064999999827 -0.3067898499999986
Zr -0.13409804999999864 -0.6955003499999997 -2.16150995
Cu 0.1645012500000007 -0.21519945000000007 2.16150995
Cu -0.744796749999999 0.22199915000000203 0.09211015000000078
