12

Zr -0.7989997500000001 -2.841600400000001 0.23210687000000263
Cu -0.8756999500000013 -0.5187015000000024 2.1365568699999997
Cu 1.7245998500000006 -1.897100400000003 0.5193670700000013
Zr -1.7609996500000022 2.0611973 0.6616770700000032
Zr 2.0909004499999995 0.8917979999999979 0.6781770700000038
Cu 0.11100004999999769 1.7397975999999993 2.666346770000004
Cu 0.07920074999999827 -2.0754032000000002 -1.998744270000003
Cu -2.0909004499999995 -0.7429027999999995 -1.1680405700000023
Zr -0.3043995499999994 1.2145977999999964 -2.666346770000004
Cu 2.0597992499999975 -0.515901600000003 -1.5564453700000058
Cu 0.5585003499999992 2.841600400000001 -0.749545370000007
Cu -0.033899350000002215 -0.2842006000000019 -0.08208302999999972
