14

Cu -0.5919456499999995 2.4609507999999956 -2.8814487500000006
Cu -1.8240471499999984 -2.6630496999999984 -1.1091517499999988
Cu 0.5749549500000057 -2.4871501999999985 -2.0855502500000007
Cu 0.35095594999999946 -2.3586483000000023 0.61575135
Zr -2.6660499500000014 0.5200481000000003 -2.5738505499999995
Cu -2.3301430499999896 -1.4884510000000013 0.7539501499999979
Cu -2.4556465499999973 1.258550599999996 0.13414965000000123
Cu 1.2640494500000017 0.3792513999999976 -2.5990504500000036
Zr 0.1301536500000111 2.6630496999999984 1.260747949999999
Zr 2.6660499500000014 -0.9497510000000027 -0.06054874999999882
Cu 1.2022513500000116 2.2610491999999986 -1.5706500500000011
Cu 1.1211509500000005 -0.554548300000004 2.1011486499999954
Zr -1.3572502499999928 -0.36404990000000126 2.8814487500000006
Zr -0.44004445000000203 -0.22974970000000283 -0.5481509500000037
