14

Zr -1.5952349000000003 -1.981800100000001 -1.840850849999999
Cu 1.7913652999999994 -2.3983956000000006 -0.06665034999999975
Cu -0.8795350000000002 -2.901699100000002 0.3822517499999982
Cu 0.03391529999999987 -0.27449420000000657 -2.772850049999999
Cu -2.5973049 1.3021049000000033 -0.9107513500000017
Zr -1.0485649000000001 2.5349997999999943 -2.402549750000002
Cu 2.7127249 0.14979929999999797 -0.26514814999999814
Cu -1.4727450000000002 0.08110419999999863 2.472450249999998
Cu -2.7127249 -1.1671943000000056 0.9441490500000036
Zr 1.0896751999999998 -1.3901940000000081 2.772850049999999
Cu -1.4399250000000001 2.4777030999999994 1.4796485500000038
Cu 1.1633149999999994 1.3580054999999902 1.7463493499999991
Zr 1.072695 2.901699100000002 -0.2257499499999973
Zr -0.31968480000000055 0.2628059000000036 0.0019492499999991253
