12

Zr -0.08217380000000007 -1.5090503999999996 -2.14239975
Cu -2.4573158999999998 -0.20174980000000176 -0.6827001499999996
Cu 2.422596 0.31155199999999894 -2.17819975
Zr 2.4573158999999998 -2.3761500999999967 -0.5686006499999996
Zr -0.06496379999999968 1.6249522999999968 -1.6377000500000003
Cu 1.8490161999999999 2.3761500999999967 0.30709935000000055
Zr -1.9461479 -1.394647599999999 1.7835006499999997
Zr -0.3795438 1.1482524999999981 2.17819975
Cu 1.8812260999999997 0.1862507000000022 0.5423002500000011
Cu 0.43629620000000013 -2.149248100000001 0.8334999500000011
Zr -2.1126148999999996 2.3158511999999973 0.10059935000000042
Cu -0.18176389999999998 -0.27684969999999964 0.18270014999999962
