17

Zr -0.09310005000000032 -2.035799000000001 -2.6310248999999994
Cu 1.5081992500000005 -2.714101799999998 -0.20685429999999938
Zr -3.3278002499999992 0.4377002999999995 -0.5307049999999989
Cu -1.62629935 0.3052997000000026 -2.2394648
Cu 0.7170005500000016 0.3298014999999985 -2.9312948999999997
Zr 0.0419993500000011 2.272600200000003 -1.1824745999999995
Cu 2.462899750000002 -1.0323008999999992 -1.8981046999999998
Cu 2.2602000500000017 1.4236011000000026 -0.6006245999999993
Cu -2.026699449999999 -1.985399300000001 0.06695509999999993
Cu -0.7244992500000009 0.7390994999999982 2.9312948999999997
Cu -2.8913006500000016 -0.696401599999998 2.0695949000000007
Cu -2.150999549999998 2.421499200000003 0.6539254000000008
Cu 0.3219008499999987 2.714101799999998 1.4371953000000013
Cu 3.3278002499999992 -0.6742000999999966 0.2007957000000009
Cu 1.307700650000001 -2.164800599999996 1.8680948999999996
Cu 1.6240992500000004 0.7018986000000034 2.2033954000000002
Zr 0.09920075000000139 -0.2884998000000003 -0.012714900000000195
