14

Cu -1.0986023500000002 0.018953350000003866 -3.1656549000000003
Cu 1.0371016500000039 0.6971530499999972 -2.2377551000000007
Cu -2.7096023500000044 0.024850849999992874 -0.3191845
Cu 0.7238998500000022 -2.8037510500000025 1.8709551999999996
Zr -0.9573975500000032 -1.9106502500000033 -0.9678347000000005
Cu -1.1310959499999953 1.7004489499999949 1.3746554999999998
Zr 0.46250144999999776 1.3281497499999944 3.1656549000000003
Zr -1.007698150000003 -1.1492481499999982 2.0499550999999987
Zr 1.8619003500000062 -1.7706508500000027 -1.1325352000000009
Cu 2.7096023500000044 0.8033466499999946 -1.1810047999999997
Cu 2.6165008500000013 0.08545114999999726 1.1425550999999996
Zr 1.065803449999997 2.8037510500000025 -0.10972520000000108
Cu -0.8705977499999946 1.6646518499999985 -1.3471453000000007
Cu 0.5092010499999944 0.3997516499999989 0.08076549999999871
