16

Cu 1.0962486000000027 0.7386512500000002 -2.9952506999999997
Zr -0.9018517000000017 -2.865947649999999 0.8844489999999965
Zr -2.968547800000003 -0.9350509500000008 -0.7073517000000038
Cu -1.5655479999999997 0.7624511500000004 -1.988349900000003
Cu 0.6216468000000006 -2.852447449999996 -1.5692519999999988
Cu 1.4075508000000028 -2.1190491499999986 1.851448099999999
Cu 2.9325523000000047 -1.8117484499999996 -0.37314990000000137
Zr -1.5925484000000054 2.865947649999999 -0.11365130000000079
Cu -2.3334541999999985 0.7452506499999991 1.7285499999999985
Zr 2.9619484000000043 -0.046550749999997976 1.3929480999999981
Cu 1.6038475000000076 2.807453150000004 -1.543552400000003
Cu -0.6010551999999976 -0.6981506499999988 2.9952506999999997
Cu 1.6201514999999986 2.572147349999998 0.8010482999999979
Cu 2.968547800000003 0.9057502500000005 -0.9793510000000012
Zr -0.5733528999999962 2.003749850000009 2.883747100000001
Zr 0.17294690000000656 0.29125205000000065 0.15644840000000215
