11

Zr -2.7590980499999986 1.077599499999998 -0.014900200000003139
Zr -1.8192024499999988 -2.266400400000002 -0.8945006999999983
Cu 0.8540992499999973 -0.4392004000000007 -2.609798399999999
Zr -0.4037971499999955 1.7727003000000003 -1.1435013000000005
Zr 2.7590980499999986 -0.1603993999999993 -0.2654000000000032
Cu -1.3260993499999998 0.27570049999999924 2.528800999999998
Cu 1.2190971500000032 -2.6479996999999997 -0.43439869999999914
Cu -0.13630295000000814 -2.413800300000002 1.796001399999998
Cu 1.2216987499999945 -0.30200100000000063 2.609798399999999
Zr 0.7787972500000038 2.6479996999999997 1.664901799999999
Cu 0.14139945000000154 -0.3025999000000006 0.1736983999999957
