13

Zr -1.2110977499999933 -1.2901601000000005 2.478006569999998
Zr 1.9723968499999955 -2.1293201999999996 -0.9241535299999981
Cu 0.7024001500000026 -2.4626998999999996 1.3699968700000014
Zr -1.510902349999995 -1.7730998999999992 -0.699203230000002
Cu -2.2583999499999976 0.788800300000001 0.8418467699999965
Zr 2.2583999499999976 1.046199800000001 0.540556770000002
Cu 0.21949764999999388 -0.6883296999999997 -2.192705370000006
Zr -0.43399814999999364 2.4626998999999996 -0.7644035300000027
Cu 2.06880185 0.9309005000000008 -1.9379133300000007
Zr -0.42970275000000413 2.0094003000000003 2.3218968700000033
Cu -2.031898549999994 0.8001002999999995 -2.478006569999998
Cu 1.801399250000003 -0.6927796000000006 2.4046766700000006
Cu 0.11620324999999809 0.09059999999999935 0.2857864699999979
