16

Cu -0.5761751999999998 -2.5257501500000004 0.6841502500000001
Cu -2.4023752 0.47284984999999935 -2.1324505499999997
Zr -2.0736551 -1.80585005 -2.016050850000001
Cu 0.4841647 -2.86534975 -1.5969510499999995
Cu 0.3433547000000008 0.5933503500000015 -2.873050149999999
Cu -2.6843052 -1.0790491499999995 0.5023493500000011
Cu 2.2684249999999997 -1.1769495499999998 -2.292650749999998
Cu -0.5214051999999993 2.86534975 -1.7684501499999978
Zr 2.3219052000000007 1.8324499500000009 -1.1997494500000006
Cu -1.5730952999999994 1.930750849999999 0.237149650000001
Zr 2.6843052 -1.4160490500000016 0.4443487500000014
Zr 0.47386460000000064 -0.8619489499999986 2.492450249999999
Cu 2.2467051000000007 1.7638502500000008 1.326850349999999
Zr -1.5945753999999992 0.5254506499999998 2.6549505500000006
Cu 0.4722848000000006 1.7228498499999993 2.873050149999999
Zr -0.05971519999999941 -0.11244865000000104 -0.14505054999999878
