13

Zr -2.5233998500000006 -0.8039988499999993 -0.48620030000000014
Zr -0.7480006500000016 -0.6233005499999962 -2.7992001
Cu 2.5233998500000006 -1.7358989499999993 1.1898020999999943
Zr 2.0176987499999974 0.14320194999999813 -0.7499981000000062
Cu -0.14989995000000178 2.3355007500000013 -0.1234989000000013
Cu -2.122600150000002 -2.2328014499999966 1.4539012999999983
Cu -0.07450055000000155 -2.4222011499999994 0.17090029999999956
Zr 0.2386993499999992 -2.2027988500000006 2.7148036999999974
Zr -1.5233006500000013 0.04549984999999879 2.7992001
Cu -2.1500001500000003 2.4222011499999994 1.2518024999999966
Cu 1.6251988500000003 0.15229994999999974 2.2516002999999998
Zr 0.46139954999999944 2.30550195 2.4829997999999947
Cu 0.032999449999998376 -0.30909915000000154 0.7088031999999984
