13

Zr 0.33423596499999775 0.9271664299999998 -2.9410004500000007
Cu 0.8537140649999984 1.75492663 -0.3602003499999995
Cu 1.8050480650000011 -1.8368435699999992 -1.3455996500000005
Cu -0.5736284649999988 -1.2365232699999993 -1.62859965
Zr -2.045430164999999 1.7457265299999989 -0.9346003500000002
Cu -2.005528465000012 -2.509346530000002 -0.04239985000000068
Cu -0.5764283649999982 -1.1762433700000017 2.7094999499999997
Zr 2.8015260649999973 -0.025773569999998358 0.6703001499999992
Zr 0.8292560650000027 0.8939966299999966 2.9410004500000007
Cu -1.054425265000006 2.509346530000002 1.5676999499999997
Zr -2.8015260650000045 -0.4152432699999977 1.3495002500000002
Zr 0.8705450650000017 -2.438049829999997 0.9745001500000008
Cu -0.20359403500000184 0.13031663000000293 0.4901004499999999
