15

Zr -2.424150500000003 1.8803977500000002 -2.4418507
Zr -0.5976506000000015 -2.6775016499999964 -0.7248515999999974
Zr 1.0535489000000027 -1.1541023500000023 -2.026651400000002
Cu -3.1255511999999968 0.81810385 0.28095049999999944
Zr -1.7337513000000015 1.724102049999999 2.2824497000000044
Cu -2.3098506999999984 -0.7493019500000031 -1.5117511999999955
Cu 0.10545150000000092 1.306499450000004 -2.3480510999999957
Cu -0.5956478000000018 2.6775016499999964 -0.42144970000000015
Cu -1.2464504000000005 -1.019397749999996 1.3560504999999985
Cu 1.0261516999999998 -1.893100750000002 1.0568485000000045
Cu 1.8173504000000023 2.2411994499999963 -0.8646488000000012
Zr 3.1255511999999968 -0.3548011500000001 0.3225498000000009
Cu 0.1367510999999979 0.1478004499999912 2.4418507
Zr 1.655450799999997 1.8881034500000027 1.5215511
Cu -0.11474799999999874 0.4126014499999968 -0.2583485000000003
