16

Zr -1.9202976499999984 -1.0840491000000014 -2.0811482000000012
Cu -0.03370095000000717 -2.7073516999999967 -1.0678501000000011
Zr 3.0818996500000004 -1.2211494000000016 -1.9241505000000032
Zr 1.0809001499999944 -3.2513503999999998 1.5396518999999955
Cu -3.2199001500000044 0.1160507000000024 -0.13574790000000547
Zr 2.1243038499999933 1.4018479 -2.6396502999999996
Cu 0.6174984500000029 -0.980850199999999 -3.0847492000000045
Zr -1.6631984499999994 2.5439492 -0.6343479000000016
Cu -0.6340961500000013 1.0303497000000021 -3.1092510000000004
Cu 0.7153988500000033 3.2513503999999998 -0.6112499000000042
Zr 3.2199001500000044 -0.9127501999999978 0.9043483999999964
Cu 2.4426021500000026 1.788349199999999 0.9667491999999953
Cu -1.2320003500000034 -1.306350700000003 1.6166514999999961
Zr -0.09179875000000592 1.9196473000000012 2.2550487999999973
Cu 1.3794002499999927 -0.3085517999999965 3.1092510000000004
Zr 0.16270254999999523 -0.04825209999999913 -0.045549400000005846
