13

Cu -1.6498985499999996 -1.6837978499999977 -0.6974496500000029
Cu 0.8108978499999999 -2.336500149999999 -1.1380491500000005
Zr -2.8379974499999996 -0.008600149999999473 0.7806501499999996
Cu -0.8071975500000015 -0.3900966500000038 -2.48425005
Zr 2.312004049999995 -2.014097149999998 1.3508501499999994
Cu 1.665298449999991 0.167303050000001 -1.6701498500000014
Cu 2.8379974499999996 0.7618999500000001 0.3540506499999978
Zr -0.6172981499999999 1.969801050000001 2.363249749999998
Zr -0.8628997500000004 1.961603249999996 -0.8868494500000033
Cu 1.191497850000001 2.336500149999999 0.3700513499999971
Zr -0.46820065000000355 -1.580900149999998 2.48425005
Cu 1.726501449999997 0.5895023499999965 2.4188509499999995
Cu 0.2671012499999996 -0.18449975000000052 0.30835054999999656
