13

Zr -1.5621995500000008 -2.4956016499999976 -1.080179980000004
Cu 0.3573007499999985 -2.562801350000001 1.2966001200000008
Cu -2.812100450000001 0.2737998500000032 -0.7024996800000025
Cu -1.7177000499999995 -1.392803150000006 1.569760119999998
Zr -0.9831990500000014 2.0405006499999985 0.45540022000000135
Cu 1.601500549999999 -2.1520042500000045 -1.055549880000001
Zr 2.812100450000001 -0.6820030500000058 0.5332601200000013
Cu 1.304299349999999 2.562801350000001 0.6132500199999953
Cu 0.3956003500000005 -0.31560135000000855 2.8820503199999976
Cu -0.9530000500000018 1.1133994500000028 -2.6229484200000073
Cu 0.4656000500000008 -0.6954994499999998 -2.8820503199999976
Zr 1.8228998500000007 1.314296749999997 -1.7260699799999983
Cu 0.12290095000000001 -0.6277046499999983 -0.04164008000000052
