13

Cu 0.9576501999999998 -2.7046003500000015 2.876497020000002
Zr -0.5644501999999996 0.05989754999999697 2.7827170199999998
Zr 1.1432485999999997 2.060198950000002 2.020716919999998
Zr 2.224749599999999 -1.2307004500000023 1.2672870199999977
Cu 1.9798498000000002 1.257201249999996 -0.05469672000000969
Zr -1.2658510000000014 -2.396000850000002 0.6431570199999967
Zr -1.7680502000000011 1.9351988500000008 0.4423048799999947
Cu 1.3080491999999992 -2.2654008500000007 -0.9810960200000096
Cu -2.6435499 -0.46210195000000276 -0.6199967200000032
Zr -0.6710501000000022 -0.12170114999999804 -2.876497020000002
Cu 0.11695010000000039 2.7046003500000015 -1.6878907199999986
Zr 2.6435499 -0.32520005000000474 -2.4201904199999973
Cu 0.14174939999999836 -0.3890008500000004 0.12110737999999799
