14

Zr 0.267002049999995 1.0946998000000008 2.8013882300000006
Cu -1.9540977499999954 -0.744098699999995 2.820209070000004
Zr 0.5920066499999947 -2.241603900000001 -2.0463137699999976
Cu 0.2056998499999949 0.34759900000000243 -2.820209070000004
Cu -1.7025947499999958 -1.1415977999999996 -2.475215469999995
Zr -0.8163948500000018 -2.4704018000000048 1.000286630000005
Cu 1.9867057500000058 -1.8172035999999991 0.3999905299999966
Cu -1.301097849999998 2.0853996000000024 0.7587857299999996
Zr -2.2407950499999956 1.5049019000000072 -2.2118105699999973
Zr -2.645000450000005 -0.7981987000000004 -0.061709769999993114
Zr 0.6075019499999925 2.4704018000000048 -1.3492083699999995
Cu 2.2261008500000017 0.025097000000002367 -1.6489138700000012
Zr 2.645000450000005 0.7960014000000086 1.2166867300000064
Cu 0.006702350000004742 0.19150159999999516 0.09399082999999564
