12

Cu 1.5171013000000002 -1.8306483999999976 -0.9044499499999983
Cu -0.7229996000000014 0.46525000000000105 -2.6382498499999993
Zr -0.9591999000000015 2.817548800000001 -0.09435034999999914
Zr -1.8633994999999999 -1.5374507999999985 -0.758849549999999
Zr 1.9174003000000006 1.3986491999999977 -1.5619500499999983
Zr 0.7450007999999997 -2.817548800000001 1.0970502500000006
Cu 2.4687003999999995 1.9426518000000037 0.90854985
Zr -1.0840989000000008 -1.1302507999999953 2.6382498499999993
Cu 0.21220010000000045 1.6928501000000047 1.9048495500000016
Cu -2.4687003999999995 0.6628513000000034 0.9812503500000016
Zr 2.3955002000000007 -0.2842501999999989 1.6934495500000004
Cu -0.06900029999999902 -0.22115129999999894 0.12884955000000176
