14

Zr -1.5336007999999985 -1.7855510999999957 -1.5585480000000018
Cu -0.7652998000000011 -2.820650099999998 1.03125
Cu -2.9814004999999995 -0.4835491000000012 0.3737488000000013
Zr -2.1530008999999986 1.0717524999999988 -2.066551199999992
Zr 0.6831999000000017 0.4564495000000015 -2.9640502999999967
Cu 2.1925001 -1.4631481000000015 -1.3364487000000054
Zr 0.6477003000000003 2.8075505000000014 -1.1971511999999933
Zr 2.481900200000002 -1.8920496999999976 1.3167496000000085
Cu 0.4532002999999989 2.820650099999998 1.5284500000000065
Zr -1.3552007999999987 -0.7448482999999975 2.9640502999999967
Zr -2.0334997999999977 2.2013493000000004 1.1150511999999964
Zr 1.4514990000000019 0.23295020000000122 2.898353499999999
Cu 2.9814004999999995 0.672948899999998 0.34745019999999727
Zr 0.050398799999999966 0.07835210000000004 0.3552475000000044
