11

Zr 1.1337012999999985 -0.07445150000000211 -2.5146522499999975
Cu -1.2961006000000026 -0.7283515999999963 -2.4425468499999994
Zr -2.4723015000000004 -1.2783508999999995 0.3008537500000017
Cu 2.4723015000000004 0.39524839999999983 0.3224525499999942
Zr 2.098800699999998 -2.4914512 -0.5682487499999951
Cu -1.112999000000002 1.6945495000000008 -0.8756523499999957
Zr 0.8488997999999981 2.4914512 0.7408485499999955
Zr 0.00280000000000058 -2.408248999999998 1.62614825
Zr -1.206398 0.38734819999999814 2.5146522499999975
Cu 2.020698600000003 -0.3432503000000011 2.294849350000007
Cu -0.0116997000000012 -0.44974909999999824 0.04124824999999532
