17

Cu -1.4847526999999943 0.1421499000000015 -2.869598400000001
Zr 2.133747100000001 -0.7814493999999979 -2.887699099999999
Cu -2.5735512000000043 -1.9589491999999975 -2.193698900000001
Zr -0.35715099999999467 -2.781449399999998 -2.6410979999999995
Cu -1.419048299999993 -2.5823488999999977 -0.0866012999999981
Cu -2.651050599999998 -0.3029489999999999 0.36659999999999826
Cu -1.9071465000000032 2.2118501000000013 1.437900500000005
Cu 0.946346400000003 1.6995496000000028 -2.0783996999999985
Cu -0.16785049999999302 -3.0022497999999995 1.8300018000000051
Cu 1.2912482999999995 -0.8849496999999982 2.1784019000000043
Cu 1.5715523000000005 -2.2963495999999974 0.16740030000000417
Zr 2.651050599999998 0.5026501999999997 0.25960160000000343
Zr -2.520946500000001 1.8884495999999995 -1.3884010999999958
Zr -0.2055472999999992 3.0022497999999995 0.07910160000000133
Cu 0.8891488000000081 1.7158498000000026 2.160201999999998
Zr -1.000148799999998 -0.017449399999998505 2.887699099999999
Zr 0.006847400000005166 -0.3107500000000005 -0.4100990999999965
