15

Zr -2.2557702500000003 -0.8393477999999988 -1.90200235
Cu -0.025620049999999672 0.2656479999999988 -2.94799995
Cu 2.5053801499999997 -2.237350500000005 -0.5368022499999974
Zr 2.195479849999999 0.17485050000000513 -1.4825992499999963
Cu 0.011080349999999406 -2.0143508999999966 -1.677701950000003
Zr -2.1325698500000003 -1.3660507000000024 1.5805988499999977
Cu 0.07658044999999891 -2.5025482000000068 0.7843990500000011
Zr 2.39777985 -0.12284850000000347 1.6196003500000025
Cu -0.5349202499999999 0.001747100000002888 2.94799995
Cu -0.7309194500000009 2.0873490000000032 1.3144970500000035
Zr -2.5053801499999997 1.906646699999996 -0.7216014499999979
Cu 0.8893799499999995 2.4923476999999963 -0.023500449999996675
Zr 1.3998798499999987 2.5449523999999997 2.6999988500000036
Cu 0.4450802499999993 -2.5449523999999997 2.7073993499999993
Cu 0.1764797499999995 -0.16275020000000495 0.4984989500000019
