17

Cu 1.0401297999999999 -1.5178508499999985 -2.9289504000000015
Cu 0.39808999999999983 -2.884450949999998 -1.0372496000000027
Zr -1.6900899999999996 -0.9297504500000038 -3.0484495000000003
Cu -2.0695299 -1.7499484500000015 -0.45425129999999925
Cu 0.3831302000000001 -2.046949350000002 1.3243513
Cu 2.1837398000000006 -1.5205517499999992 -0.3278513000000025
Cu -1.7474201999999996 -1.4416484499999989 1.9904508000000014
Cu -1.5540398 2.4865512500000015 -0.8703508000000006
Cu -2.2622299999999997 0.5687503499999984 0.8264493999999978
Zr 0.06329019999999996 1.559549350000001 -3.205451
Cu 1.1079398000000005 2.884450949999998 -1.2079497000000003
Cu 2.2341501 0.42434884999999767 -1.7975492000000024
Cu 1.9112102000000002 1.5065517499999963 0.5340489999999996
Zr 2.2622299999999997 -0.37904934999999895 2.1608495999999953
Cu -0.40397009999999955 2.1606502499999998 1.2455510999999966
Cu -0.2895601999999995 0.403051449999996 3.205451
Zr 0.02835000000000054 -0.1789493499999999 -0.23125170000000494
