14

Cu -2.293350099999998 0.09324839999999313 -2.7835503000000017
Zr 0.6942520999999999 0.28705039999999826 -2.9538498000000004
Cu 1.3841476999999998 -1.7436504 -1.5393484999999991
Zr 3.0452499000000017 0.0788517000000013 -0.9125499999999995
Cu -0.3789519000000041 -2.387849799999998 -0.500949900000002
Cu -3.0452499000000017 0.14634900000000073 -0.32964899999999986
Zr -1.5672454999999985 -0.9147510000000025 2.0856513999999997
Zr 1.262054500000005 -1.6632517999999976 1.3933506999999992
Cu -0.13385010000000364 2.295946200000003 1.9899501999999991
Cu 1.9297485000000023 2.387849799999998 0.3233509000000012
Cu -2.0652465999999947 1.8964481999999947 1.5470503999999998
Cu -1.2224502999999913 2.0979480999999964 -1.2183494999999986
Zr 2.074951200000001 0.8138522999999935 2.9538498000000004
Zr 0.008552600000001576 0.3206502000000029 0.018251400000000473
