13

Cu -0.4333457999999908 2.1758504499999995 -1.2692508500000024
Cu 0.005954800000004923 -0.15255025 -2.502950649999999
Zr 2.035953499999998 0.9738506500000002 -0.9291515500000038
Cu -0.8239479000000003 -2.1758504499999995 0.6108493499999987
Cu -1.6024511999999973 -1.6122499499999998 -1.215452250000002
Cu 0.9780541000000014 -2.11475045 -1.4065494500000035
Cu 2.132648500000009 -1.4773498500000004 0.265748949999999
Zr -2.7519492999999997 0.9127506500000004 -0.6676502499999977
Cu -0.8539467000000016 -0.45515025 2.502950649999999
Cu -0.5446509999999947 1.890650250000001 1.0379505500000015
Zr 2.7519492999999997 1.3979496499999984 1.6670474500000019
Cu 1.7975501999999963 -0.733950150000001 2.485147549999997
Cu -0.11465069999999145 -0.15665014999999993 0.04594994999999713
