13

Cu 0.5260505999999978 1.6165341800000022 -2.2358483500000013
Zr -0.3090515000000025 2.665004280000005 0.1302520499999993
Zr 2.435451499999999 2.6536540800000026 -0.9224499500000007
Cu -2.435451499999999 -1.8891024799999983 -1.93595015
Cu -1.9754524000000018 -0.07999758000000412 0.5411520499999973
Cu -1.7579497999999987 0.764400920000007 -1.920748549999999
Zr -0.5380516000000028 -2.665004279999998 0.04675204999999849
Zr 0.41654969999999736 -1.310100080000005 -2.817950249999999
Cu 2.4053459000000004 0.245701320000002 -1.6152486500000016
Cu 2.2276497000000006 -1.893397880000002 0.4429502499999991
Zr 1.9794502000000023 0.6068997199999941 1.5902510500000027
Zr -0.8154526000000004 -1.2812991799999978 2.817950249999999
Cu 0.3332480999999987 -0.09679747999999933 -0.3365487500000022
