12

Zr -1.8676996499999987 0.3581505500000013 -1.225898799999996
Cu 0.6225995500000003 -1.970649649999995 -1.083099400000009
Zr 0.26550005 1.0646476500000013 -2.7984009000000043
Zr 2.3968000499999995 0.6776504500000051 -0.650001599999996
Cu 0.187001249999998 2.6002502499999984 -0.5245972000000023
Cu -2.3968000499999995 0.1909485500000052 1.8675003000000032
Cu -0.37659934999999933 -0.6886520499999982 2.7984009000000043
Zr -1.7815999500000004 -2.6002502499999984 1.7756042000000036
Cu 1.7881994500000005 -0.8924522500000016 1.6034011999999933
Zr -0.7263002500000013 2.159248350000002 2.1205977999999988
Zr 2.234099350000001 1.991649650000003 2.4487991000000022
Cu -0.019700050000000857 0.010948250000001991 0.5006027000000017
