12

Zr 0.8820484500000001 0.3684484699999899 -2.49394985
Cu -2.37343555 -0.4655511300000086 -1.6489486500000012
Zr -0.12614154999999982 -2.7025506300000046 -1.474250750000003
Cu 0.53207855 2.7025506299999975 -0.6056518500000081
Zr -2.2025905499999996 1.3765207299999958 -0.04834735000000734
Zr -1.2468414499999998 -2.15525593000001 0.6850509499999973
Cu 1.37758855 -1.555455930000008 1.5746460499999912
Cu -2.46853855 0.006548169999987863 2.381752049999996
Zr 0.4973285500000002 1.315042769999991 2.49394985
Cu 2.05390865 -1.6534554300000082 -0.45745085000000785
Cu 2.4685385500000003 0.9167426699999908 0.12535094999999075
Cu 0.15791845000000038 0.22174286999998571 -0.13324735000001198
