13

Zr 0.3934507500000013 -2.754501300000001 0.2229518999999982
Cu 2.9943494499999996 -1.9097976999999986 -0.9451504000000028
Cu 0.9178495499999979 -1.1290969999999874 -2.52355
Zr -1.6631498500000017 -0.3905029999999954 -2.432947200000001
Cu 1.1158494500000007 0.8788985999999994 -1.6588497000000046
Zr -2.9943494499999996 -0.2509994999999918 0.7766514999999998
Cu -1.9754495500000004 -2.5522001999999873 0.9188517999999988
Cu -1.6289491500000022 1.9311981000000031 -0.6887493000000049
Zr 0.7094507500000002 2.754501300000001 0.49085039999999935
Cu -0.7830495499999994 0.6704025000000087 2.467351899999997
Cu 0.2248506499999987 -1.3536987999999894 2.52355
Zr 2.7469491500000007 0.07009890000000496 0.49975009999999287
Cu -0.09775065000000005 -0.2553024999999991 0.099649399999997
