14

Zr -2.7409515000000013 0.7357501499999977 -1.3350944999999967
Zr -0.7832488999999967 -1.665048549999998 -2.700099899999998
Cu -1.318649299999997 -2.0808506499999986 0.07720559999999921
Cu 1.2534484999999975 -2.4009494500000024 -0.9351997999999924
Zr 2.2646485 -0.31854825000000275 -2.231899299999995
Cu -0.1562499999999929 1.4579525499999981 -2.1535987999999975
Zr -0.17984769999998917 2.4009494500000024 0.6913032000000072
Cu -1.6864471000000023 0.36734964999999775 1.4270057000000094
Zr 1.1796494000000095 -2.1630497500000025 1.805301600000007
Cu 0.7510528999999977 0.3698520500000022 2.3726005000000043
Cu -1.262947099999998 -1.8322505500000013 2.700099899999998
Zr 2.7409515000000013 0.15085034999999536 0.5776023000000094
Cu 2.0010528999999977 2.1945514500000023 -0.8406944999999979
Cu -0.04814909999999628 -0.12895014999999788 0.007503499999998553
