15

Zr -0.3700999999999999 -2.7404995000000056 0.7138495000000011
Zr 0.9639005999999997 -0.39850050000000437 -2.5819202
Cu 1.3314008999999993 -2.8729001000000025 -0.9949102999999999
Cu -1.9371996000000005 -1.5935994000000022 -1.23243
Zr 2.9996996000000005 -0.9055996000000022 0.06207990000000052
Cu -2.3975 0.23000139999999902 -2.224190299999999
Zr -2.9996996000000005 1.719198200000001 0.1364498000000003
Cu 0.02839949999999991 2.8729001000000025 0.11772960000000054
Zr -0.6450996000000009 2.3585033000000024 -2.562169999999999
Cu 1.9522009999999996 1.4456004999999905 -1.2188602
Cu 0.8067007000000013 -0.756700600000002 1.8984799000000008
Zr -1.4755001000000005 2.1577967999999927 2.5819202
Cu -2.1877994000000003 -0.23309900000000283 1.4240098000000012
Zr 1.5630998999999983 1.593198699999995 1.6405396000000012
Cu -0.13990020000000047 0.40460009999999613 -0.1350403
