15

Cu 0.24600230000000067 1.0024528500000045 -2.7975502000000034
Zr -0.11620330000000934 -2.501049049999999 -2.0943489
Cu -1.5606994000000043 -0.3008536500000005 -2.0478516000000013
Zr 0.29859929999999224 3.0297508500000063 -1.049751300000004
Zr -2.707199099999997 -2.1235466500000015 -0.28335189999999955
Cu -1.0969009000000085 -2.0649528500000045 1.9336509999999976
Zr 1.3542022999999972 -3.0522499499999967 0.7351493999999974
Zr -2.675598100000002 0.2381477500000031 2.253452299999992
Cu -2.6343001999999984 1.5520515499999945 -0.755950900000002
Cu -1.9772032999999993 3.0522499499999967 1.6197470999999979
Cu 1.6799012000000033 -0.5005531499999947 -1.0759505999999988
Cu 0.012695399999998358 -0.2713508499999975 2.7975502000000034
Cu 2.707199099999997 -0.9871482499999971 1.7156485999999944
Cu 1.3315965000000034 1.344150550000002 1.7537497999999943
Zr -0.5064009999999968 0.041851049999998224 0.21194839999999715
