12

Zr 0.21430025000000086 1.1991505499999997 -2.8602981000000014
Cu -2.002700749999999 0.14534995000000084 -1.5030975999999967
Zr -2.6357994500000004 -1.8384499500000002 -0.17330170000000322
Zr -2.6054992499999976 0.21334984999999929 2.4269027000000065
Zr 0.008699450000001718 -2.3257498500000002 -1.7763976999999969
Cu 2.1729011500000013 -0.25684974999999977 -1.8954011000000008
Cu -0.22430035000000004 -1.7833494500000002 1.2297972999999942
Cu 1.6142005499999996 1.7802500500000003 -0.7737999000000002
Zr -0.9696998499999978 2.3257498500000002 0.19070430000000016
Zr 2.6357994500000004 0.5930505500000001 1.561202900000005
Cu 0.17449955000000017 1.2720503499999998 2.8602981000000014
Cu -0.008100549999998208 0.07385014999999928 -0.15750129999999984
