14

Zr -0.2343098500000007 0.8462992499999995 -2.88646005
Cu 1.8566797499999987 0.018698650000002814 -1.5385306500000002
Zr -1.12968985 -2.13980005 -1.70446995
Cu -2.9608000500000005 -1.666501049999999 0.4481598499999997
Cu -2.0745698500000005 0.5248995500000024 -0.4917405499999994
Zr 2.4296196500000002 -2.29410075 -0.36629995000000015
Cu -0.2931801500000004 -2.6922998499999995 0.5964600499999992
Zr -1.2800499500000004 -0.9494008499999982 2.36805985
Cu 0.3827398499999992 1.3283987499999999 2.88646005
Cu 1.6879394499999991 -0.926699649999998 2.1025597499999993
Zr 2.9608000500000005 0.940798850000002 1.3842598499999994
Zr 1.0513599499999993 2.6922998499999995 -0.6000903500000003
Cu -1.00853985 2.307599050000002 1.2373596500000001
Cu 0.27672995 0.022599250000000737 0.17325944999999976
