12

Cu -0.6163998000000017 -1.3951492499999993 -1.545452100000002
Zr -0.052200300000000865 1.8304500499999996 -1.3516502000000052
Zr -2.5191993999999998 0.22105024999999756 -0.10694890000000257
Zr 1.9199009 -2.0192508500000024 -0.32575220000000016
Cu 0.1968002000000002 2.6070499500000004 1.0000496000000005
Cu 1.8120993999999992 0.4698505500000003 -2.7135506000000014
Cu 2.5191993999999998 1.0704498499999993 -0.4153517999999998
Zr -0.8523997999999988 -2.6070499500000004 1.0247496999999974
Cu 1.3322009999999995 -1.3873501499999996 2.4121513000000014
Zr -1.2448998000000007 0.8291492500000004 2.7135506000000014
Zr 2.1424007000000014 0.9821491499999979 2.427051500000001
Cu 0.15119930000000004 -0.2132492500000005 0.4175490999999987
