15

Cu -1.8857698999999997 -1.3627496000000008 -0.5478476999999984
Cu 0.2737903000000004 -2.32095 -0.7156486999999956
Cu 2.3034301000000004 -0.8599496000000002 -1.8358497999999983
Zr -0.6725998999999998 1.622550500000001 -2.3254509
Zr 2.0455303000000007 1.7539496000000003 -2.1750525999999937
Cu -2.0404498999999996 -0.35244989999999987 1.520748100000013
Cu 2.9746899 -1.9381499000000009 -0.010845099999990282
Zr 0.9154200000000006 -2.7954497000000007 1.706752800000011
Cu 2.2525601000000006 -0.30884980000000084 2.21215440000001
Cu -2.9746898999999996 1.2483505999999984 -0.2770499999999956
Cu 2.7368802000000003 0.5424503999999999 0.09144970000000541
Cu 1.0403399000000007 2.360850900000001 1.3075523000000047
Cu -0.6511898999999999 2.7954497000000007 -0.19974899999998996
Zr -1.5103798999999998 2.081651199999998 2.3254509
Zr 0.14029020000000036 0.16085009999999933 0.4382514999999998
