12

Zr -2.5972004 0.33112833000000563 -0.168350199999999
Cu -1.3295002 -0.7923714699999991 -2.5643500999999986
Cu 0.7395000000000014 0.7314284300000011 2.401447300000001
Cu -0.6725997999999986 2.272818330000007 -0.12205120000000136
Zr -1.9888001000000006 0.38548823 2.4449501
Cu 1.1054991999999988 -2.0960147300000003 1.4679489000000032
Zr 0.5333003999999999 -2.2728183299999998 -1.5251503
Zr 2.5972004 -0.07072186999999985 0.23424909999999954
Cu 0.9675998000000003 0.8618085300000047 -1.7387504000000007
Zr -1.788301500000001 -2.254713729999999 -0.03495019999999727
Cu -0.998100299999999 -1.7925216699999993 2.5643500999999986
Cu -0.1993008000000014 -0.3659016699999995 0.3116494000000003
