13

Cu -1.37004855 -2.5032004999999984 -0.03719910000000226
Cu 2.6920509500000023 -0.763797799999999 0.036199499999995055
Cu 0.6584510500000036 -2.225997900000003 1.1726016000000001
Zr 0.9706497499999998 -2.142299600000001 -1.8966008000000016
Zr -1.5215492499999996 -1.031898500000004 2.4646015000000006
Zr -1.5692482500000011 -0.23229979999999983 -2.4646015000000006
Cu -0.7718506499999975 2.3136024000000006 -1.4289990000000046
Cu -2.6920509500000023 -0.20560069999999797 -0.21729859999999945
Cu 1.280250549999998 0.48220059999999876 -1.5790997000000004
Zr 0.2228507499999992 2.5032004999999984 0.9333018999999965
Zr 1.7573509500000029 0.06420130000000057 2.439199500000001
Cu -2.2639503500000018 1.4075011999999987 1.8328989999999976
Cu -0.2776489499999997 -0.2085991000000007 0.212499600000001
