11

Cu -0.9378000000000002 1.9099502999999984 -1.0207024000000047
Cu -1.2703005000000003 0.06904600000000727 -2.4714012000000025
Zr -2.3438001 -2.300750700000002 -1.5328026000000108
Zr -2.435399600000001 -0.09045409999999521 0.800098399999996
Zr -1.1854997000000003 -2.2882537999999997 1.755199399999995
Cu -0.47530040000000096 1.4099502999999984 2.106395699999993
Cu 0.42260019999999887 -0.5768508999999895 2.4714012000000025
Zr 2.435399600000001 -0.36255639999999545 0.551097900000002
Cu -0.08719980000000138 -2.3531493999999995 -0.6908989000000076
Cu 1.0245002999999988 2.3531493999999995 -0.013401000000001773
Cu -0.16070040000000052 0.04564669999999893 0.06789779999999723
