15

Cu -1.1693954500000032 -2.7633749000000005 -0.9167995499999932
Cu -2.188797049999998 1.201545199999999 -1.6152972499999976
Cu -2.632499750000001 0.7492650999999997 0.7035007500000034
Zr 1.198204049999994 1.5851855000000006 -2.0964984499999986
Cu 2.632499750000001 -0.3384748000000002 -0.7376994499999938
Cu -0.3887938500000061 -1.1405450000000004 -2.76740075
Cu 1.4132003499999897 -2.3199149000000006 -1.8187007499999979
Cu 0.002906750000001068 -2.861795 2.1484012500000063
Zr -0.7933960500000055 2.861795 -0.19149974999999841
Zr -1.9951935500000033 -1.6252747000000003 1.3649006500000027
Cu 2.12460325 2.0815949 0.5086002500000006
Cu 0.5913009499999973 -0.5998646000000001 2.76740075
Cu 2.591606149999997 -2.2667246 0.6251010500000049
Cu 0.5193023499999967 1.6000857000000002 1.9417019500000023
Zr 0.1482009499999961 -0.16008479999999992 0.12560085000000498
