13

Zr -1.7510509499999998 -1.5669517999999982 -1.9790019500000007
Cu 0.1853504500000014 -2.7300491000000022 -1.1009998500000044
Cu -0.856550249999998 -1.6678505000000001 1.2560978499999997
Cu -1.5852489500000004 0.9700508000000028 -1.4250010500000023
Cu -2.348550750000001 0.07365039999999823 1.7470990499999992
Zr 2.348550750000001 2.7300491000000022 0.05959894999999804
Cu 0.15754884999999774 0.6536484000000016 2.7881984499999994
Cu 0.6452503499999978 0.08544919999999934 -2.7881984499999994
Zr 2.318250649999996 -1.5371512000000038 -1.0790004499999988
Cu 2.168848050000001 -0.6954497999999987 1.8970012499999989
Cu -1.3662509500000013 2.3591498999999985 0.9693012499999973
Zr 0.3435497500000011 2.5788498000000004 -1.7316989500000055
Zr 0.2795505499999962 0.21075059999999723 0.24699974999999696
