15

Cu 1.5883503000000019 -3.0173492500000023 -0.9343509999999995
Cu -2.0616512 -0.8366508499999981 -0.9331512999999987
Cu -0.9093494999999976 0.5955504499999975 -2.9708499999999987
Cu -0.8033505000000005 1.7610473499999983 -0.9067517000000009
Zr 1.5487499000000042 0.23484804999999653 -1.913450300000001
Zr 2.688150399999998 -0.7145499499999985 0.5229491999999993
Cu 1.4208508000000037 2.7034491499999973 -1.4169501999999987
Zr 0.7341480000000047 -1.7165527499999982 2.7245482999999986
Zr -2.688150399999998 -0.45064934999999906 1.5824488999999993
Cu -0.19624900000000167 -2.1410522500000013 -0.0925502999999992
Zr -1.4347514999999973 2.9525489500000006 1.1803492999999996
Cu 1.9622478 0.606647449999997 2.3720493000000005
Cu -0.41145129999999597 1.1459502499999985 2.9708499999999987
Zr 1.0088482000000027 3.0173492500000023 1.096349700000001
Cu 0.05515100000000217 -0.07215124999999745 0.4671497000000002
