17

Cu 1.182943635000008 -0.3348502000000053 -2.5392513
Cu 2.810456865000006 -0.8776512000000025 -0.6767481999999951
Cu 0.4621414349999995 2.1885489999999947 -2.897848100000001
Zr 1.4669766650000042 -3.087551099999999 -1.627450899999996
Zr -1.4421555650000002 -1.970348400000006 -2.6870516999999943
Cu -1.3731552650000012 0.7939490999999919 -2.077249499999997
Cu 1.075743034999995 2.3527488999999946 -0.7051486999999987
Cu 2.4619367650000044 0.6260489999999947 1.052053499999996
Cu 1.6615432350000034 -2.5028496000000047 0.9325505000000014
Cu -2.810456864999999 -0.2540474000000046 -0.29194829999999783
Cu -0.7042557649999921 -2.775447800000009 0.06485180000000312
Cu -2.3515564649999945 1.869647999999998 0.7675496000000059
Cu -1.4787537650000004 -0.6540489000000065 1.4334469000000034
Zr 0.45604543500000005 -0.7516518000000048 2.897848100000001
Cu -1.311257965000003 3.087551099999999 -1.220250999999994
Cu 0.0624450350000032 2.400447799999995 1.5931529999999974
Zr 0.13404683499999948 -0.007152599999997733 -0.14805029999999775
