13

Cu -1.8287999 -0.8386001500000013 -2.2055511500000122
Zr 0.4209301999999999 0.000900250000000824 -2.9772491499999987
Cu -0.9786598 1.993799150000001 -1.5581512500000017
Zr 2.4154599999999995 1.8302001499999996 -1.6913528500000083
Zr -0.7719699999999996 -2.5478992500000004 0.9585495499999936
Zr -2.4154599999999995 0.28170014999999893 0.24095154999999835
Cu 0.8392398999999999 -1.7607002499999993 -1.0140533500000046
Cu 2.2790798 0.9661998499999989 0.9203491499999998
Cu 0.09784009999999999 -0.6539001500000019 2.9772491499999987
Cu 1.8690699000000004 -1.5576991500000013 1.3748474499999972
Cu 0.3955100000000007 2.5478992500000004 -0.1244506500000071
Zr 0.24003010000000025 1.8847007500000004 2.4147491499999987
Cu -0.05384980000000006 0.26560024999999854 0.42874914999999447
