15

Zr -1.9937991499999974 -1.3476996500000018 -2.6262493499999984
Cu -0.6350002499999974 -2.7818999500000006 0.16244694999999965
Cu 1.7412013500000008 -1.8596997500000017 1.0437488499999965
Cu 0.653400450000003 -1.9045996500000006 -1.9433498500000006
Cu -1.1634006499999998 2.7818999500000006 -1.1250515499999985
Zr -3.14769935 1.0720001499999983 -0.846052150000002
Zr 3.14769935 0.6477999499999987 -0.6378498499999985
Cu 0.8008003500000029 0.47219994999999937 -2.6368503499999996
Cu 1.4619006500000005 2.4688010500000006 -1.6281528500000029
Cu 0.359001150000001 2.3676009499999973 0.9057483499999996
Cu -0.29209904999999736 -1.6832995500000019 2.4568500499999963
Zr -2.9785003499999974 -0.2616000500000011 1.9701480500000024
Cu 1.4884013500000002 0.32899994999999915 2.0696506499999963
Cu -0.8854999499999998 1.407599949999999 2.6368503499999996
Zr -0.0757999500000004 -0.11999935000000139 0.06884954999999948
