13

Cu -1.6208515499999976 0.691648500000003 2.8932991
Zr 1.6792507500000013 -0.2547511999999976 -2.155101699999996
Cu -1.9616489499999972 -2.3868503999999966 -0.5079993999999957
Cu -2.5088519500000004 -0.5542507000000008 1.2195014999999998
Cu -0.46444894999999775 -1.915349899999999 -2.8932991
Cu -2.1823520499999987 0.33684729999999874 -2.1972998999999973
Cu 1.9467487500000047 -2.4802494000000017 -0.6446036999999976
Cu 2.60014915 -0.5480517999999996 0.1539956000000089
Cu 1.1239490500000002 -2.2444515000000003 1.6646995999999987
Zr 1.2228488500000054 1.2391491000000023 2.7873955000000095
Zr -2.60014915 2.2773495000000032 0.8239021999999991
Cu -0.13284864999999968 2.4802494000000017 -0.27910229999999814
Zr -0.029352249999995195 -0.0994509999999984 0.1628991000000113
