12

Cu 0.16599845000000002 1.2601508499999987 -2.7773990499999996
Cu -2.385599150000001 0.17665094999999909 0.6327992499999979
Cu -0.8127994499999964 -1.31245045 1.5684986500000022
Zr -1.0477009499999959 -1.0353507500000028 -1.900598549999998
Cu -1.0445003499999963 2.6670494500000004 1.4531002499999985
Zr 1.3873996500000025 -2.6670494500000004 -0.8463993499999987
Cu -1.0076007499999982 2.52325055 -0.574201549999998
Cu 2.288801150000001 0.4941501499999994 -1.88689995
Cu 1.7068996500000004 -1.1355495500000004 1.4297008499999961
Cu 0.46489915000000437 0.9130496499999978 2.7773990499999996
Zr 2.385599150000001 1.8574504499999982 0.9183978499999981
Cu 0.246900550000003 0.6098499499999974 -0.04469875000000201
