14

Zr -0.808345800000005 -2.6575508000000028 -0.908499599999999
Cu -1.1896475999999936 0.1588516999999996 -2.7745999999999995
Cu 1.317356100000005 -2.1585502000000005 -2.361599899999998
Cu 0.874355400000006 2.6342506000000014 -1.977400799999998
Cu -2.7704505999999967 -0.4555472999999992 -0.5810995000000005
Zr -1.5783501000000015 -0.5316504999999978 2.732400000000002
Cu 0.9702490999999966 0.5984497999999974 2.713000300000001
Cu 0.4799537000000029 -1.725048000000001 2.7745999999999995
Zr 1.9836539999999943 -2.5389479999999978 0.3851003999999989
Zr 2.311550099999998 0.4635505999999978 -2.2909001999999994
Cu 2.7704505999999967 0.05744940000000298 0.5110005999999991
Zr -1.8006478000000001 1.925350199999997 0.9271993999999992
Zr 1.8329505999999967 2.6575508000000028 0.6600999999999999
Zr 0.0801504999999949 0.12055209999999761 -0.18590070000000125
