11

Cu 0.38119935000000016 -1.9420985999999978 -1.93268
Zr -1.0721001499999998 -1.8808003000000006 0.9504599000000002
Zr -1.5604004500000004 1.5103015000000006 -2.1099099
Cu -1.8248000499999995 -0.7784978000000002 -1.5593300999999995
Cu -2.60500005 0.19030179999999675 0.7804501999999998
Zr -0.5469002499999993 1.9420985999999978 2.1099099
Zr 2.60500005 -1.5305995999999986 -0.31919010000000014
Cu 1.8576998500000004 1.7753009000000013 0.5785201999999998
Cu 1.1276993500000012 -0.5530987000000032 1.7937301999999997
Zr 2.03719945 0.997098900000001 -1.8447399999999998
Cu -0.1306004500000002 0.23209960000000152 -0.16553979999999946
