13

Zr -0.01830010000000115 -2.65160035 -1.2140998000000014
Cu 0.6673992999999996 -0.26469945000000106 -2.4643001999999985
Cu -1.4399996999999978 -2.0623001499999996 1.0119990999999988
Cu 1.300400800000002 2.0555005499999988 -1.997501399999999
Cu -0.21919929999999965 0.85789925 2.5021000000000004
Cu -2.613999400000001 0.16720064999999895 -0.5797004999999995
Zr 2.6880998 -1.3599009499999992 -0.2845001999999983
Cu 1.9798001999999997 0.49689915000000173 1.4060001000000018
Zr -1.8923997999999997 1.6890988500000015 -2.5021000000000004
Cu -0.29799949999999953 2.65160035 0.24009890000000134
Zr 0.9221010000000014 -1.78899995 1.9896984
Zr -2.6880998 2.34260045 1.4673995999999985
Cu -0.11099919999999841 0.1069989499999986 0.20479959999999942
