15

Cu 0.32424540000000235 0.9364509499999976 -2.6673001999999997
Cu -2.010051699999998 0.7627487499999965 -1.2924985999999983
Cu -2.3591499999999925 -1.79734805 -0.8864984999999983
Cu -0.20785140000000268 -2.94715115 -1.015599299999998
Cu 1.6696510000000089 -0.9548492500000059 -2.213398999999999
Cu 0.8113518000000042 -1.0832481500000064 2.6673001999999997
Cu -0.504154199999995 -2.728950450000003 1.1600008000000024
Zr 3.0772514000000015 -1.2312507500000045 1.336600200000003
Cu -3.0772514000000015 -0.7828483500000054 1.1213007000000026
Cu -1.5963554999999943 2.7469520499999938 -0.23619940000000028
Zr -1.1944542000000027 1.0091514499999938 2.0313005000000004
Cu 0.9284476999999995 2.94715115 0.2771998000000018
Zr 2.782749200000005 1.1287498499999948 -0.7329987999999972
Cu 1.6280479000000057 1.0168495499999999 2.2214002000000015
Zr 0.024646699999998134 -0.5019493500000003 0.1975011000000002
