16

Cu -2.7409000500000005 -0.2929000999999971 -0.015050900000002088
Zr -1.9923991500000042 -2.4850005999999922 -1.7960491000000012
Cu -0.3173999500000022 0.2546997000000033 -2.684450199999997
Cu 0.5991993499999992 -1.657295199999993 -2.208848999999997
Zr 2.3776989499999956 -2.083297700000003 -0.4739514000000007
Cu 2.7409000500000005 0.88900000000001 -0.8967495000000021
Zr 0.013898849999996798 0.6483994999999965 2.684450199999997
Cu 0.9516010499999936 2.3355027000000064 -1.2989482000000017
Cu -1.7325992499999998 1.6265031000000079 -1.190549899999997
Cu 2.616601949999996 0.06300360000000182 1.7345486
Cu 2.1406002499999985 2.757400500000003 0.9186495999999984
Zr -1.7576999500000028 -2.757400500000003 1.2618503000000025
Cu 0.980001449999996 -1.9649962999999957 1.7653521999999988
Cu -2.58049965 1.6837998999999968 1.2572498000000003
Cu -0.1896991500000027 2.755004900000003 0.8929500000000026
Zr -0.22889895000000138 0.09340670000000273 0.16975210000000018
