14

Zr -1.1938953999999997 -1.805250149999999 -2.0637893499999995
Cu 0.26310440000000046 0.9885482499999974 -2.61188985
Cu 0.9264049000000005 -2.6613502500000017 0.4965906500000008
Cu 1.1831044000000004 -1.7594509500000015 -1.8495702500000002
Cu -2.8013047999999996 0.05664824999999851 -0.9515399499999999
Cu 0.9127044 2.066947950000003 1.6718902499999997
Cu 0.8603048000000006 2.6613502500000017 -0.8342398500000003
Cu -0.46469499999999986 0.23315045000000012 2.61188985
Zr 2.304405100000001 -0.7898502500000006 1.9417905499999994
Zr -1.8473453999999991 2.5114478499999997 -1.3569793500000005
Cu -2.532435499999999 -0.9197502499999999 1.4528903499999997
Zr -1.5951949 2.204048150000002 1.7102899500000008
Zr 2.8013047999999996 -0.13605124999999774 -0.4442100499999997
Zr -0.33589559999999974 0.27024834999999925 -0.004909549999999818
