17

Cu 1.2883500999999988 -0.3939494500000045 -2.443050399999999
Cu -1.3364495000000005 -0.43025015000000266 -2.1432495000000014
Cu -2.8951502 -1.6345499500000038 -0.07735060000000082
Cu 2.8951502 0.3641530499999952 -0.9696501999999985
Cu -0.6678494999999991 -2.534147150000006 -0.9509506000000005
Cu 2.416350399999999 -2.185850150000004 -1.9416503999999986
Cu -1.4223490000000005 2.0045528499999996 -1.392850900000001
Zr 1.3731508000000012 2.653051449999996 -1.623250999999998
Cu -0.9338483999999987 -2.5022487500000032 1.751649900000002
Zr 1.6648512999999987 -3.13355065 0.28454970000000124
Cu 0.9907502999999984 -1.5718477499999999 2.443050399999999
Zr -2.0547495 0.7286510499999999 1.4184494000000019
Cu 0.42495059999999896 1.4976520499999957 2.3786506999999997
Cu 2.321351100000001 1.9986515499999946 0.7766494999999995
Cu 2.6687499000000017 -0.3448505500000003 1.5551490999999995
Cu -0.015849100000000504 3.13355065 0.29055030000000137
Zr 0.1754503000000014 -0.3314494500000045 -0.08595080000000088
