16

Zr -1.8590498000000002 -2.24335005 -1.5732993500000028
Cu -0.6335400999999985 -3.2879495500000004 0.34679794999999913
Cu -2.171120599999999 0.42204955000000055 -1.6697005499999982
Cu -3.0000601 0.1650495499999991 0.8881988499999984
Zr 2.0897598000000004 0.4160509499999989 -2.5418014499999977
Cu 1.297559800000001 -2.1167497500000003 -1.533599849999998
Cu -0.0908401999999997 2.081151049999999 -2.464000649999999
Zr 0.8392602000000009 3.2879495500000004 0.3823013500000023
Cu 3.0000601 -1.1918497499999994 -0.49510195000000223
Cu 2.5227595000000003 1.5474500499999984 -0.027801450000001893
Cu -1.7991599999999996 2.624949449999999 0.11840065000000166
Cu -1.3214701999999994 -1.5766496500000002 2.00329975
Zr 1.3543597000000007 -1.6663503499999983 1.9030991499999992
Zr 2.0847597 1.0894498500000012 2.4436989500000017
Cu -1.3325699999999996 1.5355501499999988 2.5418014499999977
Zr -0.1406401999999991 0.2670507499999992 0.14910124999999752
