14

Zr 0.585853550000003 -2.432151850000004 -2.434704749999999
Cu -1.4051512499999959 -0.5510483500000021 -2.28044505
Zr -3.0405502500000026 -0.8031502500000016 -0.07051564999999993
Cu 0.10105134999999876 -2.70634845 0.10428425000000008
Cu -1.8399505500000046 1.605949349999996 -0.5914154500000004
Zr -1.963447550000005 0.20705034999999583 2.4449844500000006
Cu -0.03354644999999579 2.70634845 0.7722845500000011
Zr 0.9858474500000014 1.257549349999998 -2.83578495
Zr 2.863647449999995 1.5915489499999964 -0.26081564999999873
Cu 3.0405502500000026 -1.1660499500000014 -1.7846851499999987
Zr 2.704452549999992 -1.4084510500000036 0.8834848500000012
Cu 0.2766495499999948 -1.7813492500000052 2.83578495
Cu 1.0533523500000044 0.7597503499999974 2.77708435
Zr 0.2238540499999928 -0.0857505500000002 0.1670846500000005
