14

Cu -0.020847350000003928 -2.38495015 -0.13860309999999032
Zr -1.0217476500000018 -2.178550249999999 -2.442199699999996
Cu -2.860652949999995 0.32924985000000184 1.2087021000000036
Cu -0.5527458500000009 0.3615489500000013 2.2176971000000023
Cu -1.8075523500000017 -0.20394944999999787 -0.7004013000000029
Zr 0.1514472499999968 0.862649450000001 -2.061401400000001
Cu 2.6597480499999975 0.6469493500000016 -0.7725982999999914
Zr 2.860652949999995 -2.332849949999998 0.5970001000000096
Cu 2.5900535500000004 -1.438450249999999 -1.6290969999999945
Zr 2.7638511500000007 0.41945034999999997 2.2603989000000055
Cu 0.7626533500000008 -2.0615505499999998 2.442199699999996
Cu -1.1805458500000086 2.38495015 -0.013099699999990833
Cu 1.3070487499999999 2.1509490499999995 0.5458984999999998
Cu 0.5556525499999978 -0.05415004999999873 0.00920099999999735
