13

Cu -0.1324500499999992 1.3184471000000002 -2.5393500499999995
Cu -1.59345055 -1.9140510000000006 2.0103507500000006
Zr 0.08514974999999936 -2.8829497999999987 0.5258498500000002
Zr -2.5769500500000007 1.0669479999999965 0.5640501499999999
Zr -2.3413505500000014 -0.19404980000000194 -2.5003495499999993
Cu -2.0343494500000006 -1.7051506000000032 -0.028849149999999213
Zr 0.9261493499999993 -1.1678505000000001 -2.1076502500000007
Cu -0.5596504499999995 2.8829497999999987 -0.9365496499999999
Zr 1.6203498500000002 1.8553505000000001 -0.32095005000000043
Zr -0.5110492499999992 1.831848100000002 2.5393500499999995
Cu 0.93745045 -0.3040504000000013 1.8848509500000006
Cu 2.5769500500000007 -0.5065498000000019 0.0790496499999982
Cu -0.31904984999999897 0.09024819999999778 -0.22704935000000148
