13

Zr -2.6390038500000017 -2.290550249999999 -0.4786032999999925
Cu -1.7072030499999968 -0.072151250000001 -2.254497599999997
Zr -0.20139705000000419 -2.2525482500000003 -2.135997800000002
Cu 1.2498969500000001 1.6562499499999994 -0.6298027000000026
Zr -3.143199950000003 0.1062507499999974 1.005397800000008
Cu -1.2775002500000099 2.321350049999996 -1.5329017
Zr 2.126697549999996 -0.3694496500000035 -2.508602100000001
Zr 3.143199950000003 -0.8323479500000026 0.3034019000000079
Cu -1.3057976500000095 -1.247447949999998 2.0041008
Cu 0.7993964499999962 -2.353549949999998 0.5076027000000032
Zr -0.7130013500000061 2.353549949999998 1.5170020999999956
Zr 0.792201949999999 0.3197517499999982 2.508602100000001
Cu -0.23679745000000452 0.08695214999999834 -0.12659839999999534
