13

Cu 0.3521995499999946 -2.3266992999999996 -2.01780035
Zr -1.5798988500000064 -0.24089919999999942 -2.746600150000001
Zr -0.5494957500000055 -2.135800399999999 1.1276998500000008
Zr 1.26900105 0.023200000000000998 -2.8245000499999993
Cu 2.205905950000002 -1.1505995999999978 0.09210114999999952
Cu -0.38859945000000096 2.1414994000000025 -1.8387002500000005
Cu -2.4407005500000025 1.710799100000001 -0.48400015000000174
Cu 1.8034019499999943 2.3266992999999996 -0.9034986500000013
Cu 2.4407005500000025 0.9087991000000013 1.4974012500000011
Cu -2.126598350000009 -0.2267008999999991 0.5093012499999983
Zr -0.5717964500000079 1.9611005000000024 1.2507009500000006
Cu 0.4654044499999941 -0.3641004999999975 2.8245000499999993
Cu 0.2150993500000027 0.09549990000000186 -0.28909964999999893
