11

Zr 0.078748700000002 -1.7230510000000017 -2.100147150000005
Cu 2.081350300000004 -2.541448599999999 -0.8287468500000088
Cu 0.9438495000000025 -1.8732508999999986 1.398754149999995
Zr -2.2464504000000005 2.2300511000000007 -0.27354815000000343
Cu -0.8085518 1.1975498000000009 -2.7427482499999982
Cu -1.724750499999999 -0.7081508000000021 0.643749249999992
Zr 2.2464504000000005 0.5688495999999965 -2.5087470500000038
Cu 0.44634820000000275 2.541448599999999 0.7305488499999981
Cu 2.2349491000000015 0.18015099999999862 0.0069541499999914436
Zr 0.3917484000000009 0.4731502999999968 2.7427482499999982
Cu -0.22615049999999925 0.12114910000000023 -0.538051650000007
