15

Cu -0.8055276000000002 0.3178996500000011 -2.7860984999999943
Zr -1.8938266000000001 -2.48340035 -1.5636022999999994
Cu 0.38173239999999975 -2.4951000499999996 -0.087200100000004
Cu 0.48882239999999966 -1.6582002500000002 -2.392002099999999
Cu -2.4077925000000002 -0.1609001499999998 -1.3379020999999938
Zr -1.1972876000000003 2.60700035 -1.1700019999999967
Zr 1.5949023999999996 0.4902000500000021 -1.8648033000000055
Cu 0.22705239999999982 -1.4848003499999987 1.9813957000000073
Zr -2.0881866000000002 -2.60700035 1.4099999000000025
Zr 2.4077925 -0.9715003499999995 0.8988990999999942
Cu -1.0570576000000003 2.6044006499999988 1.2991982000000064
Cu -2.2239523 0.277500250000001 1.6476021000000003
Cu 1.6163123999999995 1.663099250000002 0.2608986000000044
Zr 0.7571223999999996 0.949300749999999 2.7860984999999943
Cu -0.7071876000000001 0.11600014999999964 0.1835975999999988
