16

Cu -2.1056002499999984 -1.96854965 0.1713523999999964
Cu -2.277700450000001 0.32485014999999606 -1.8092537000000064
Zr 0.5235996499999978 -2.96294975 0.6224479999999986
Cu -0.6442012499999983 -2.0047473500000024 -1.7143515999999934
Cu 1.9914989499999969 -0.1420497500000053 -1.4837532000000024
Zr 0.008401849999994937 -0.14494894999999985 -3.2458533999999943
Cu 2.8327999499999983 -0.7402476500000006 0.41734699999999947
Zr 0.2511997500000014 2.2537517499999993 -1.8157462999999936
Cu -1.2665004499999988 2.96294975 0.07294850000000253
Cu 2.695901849999995 1.4295521499999992 -0.11024850000000441
Zr 1.0327014500000011 -0.17904855000000452 3.2458533999999943
Cu -1.9779987500000011 -0.9688472500000032 2.2570533999999967
Zr -2.8327999499999983 1.0022526499999955 0.6439475999999971
Cu -1.4490985499999987 1.1034527499999953 2.7834511000000006
Zr 0.8938007500000005 2.2675495499999982 1.8079490999999948
Zr -0.0632000500000025 0.20425224999999614 0.08344650000000087
