13

Zr 0.5021018500000025 -1.5197151000000004 2.4472446700000035
Cu -0.9416999500000003 1.0154949999999991 1.8277046700000028
Zr 1.7635993499999998 1.4630544000000003 1.8528346700000071
Zr -2.599399550000001 -0.34339509999999995 -0.02834496999999203
Cu 2.599399550000001 -0.13405539999999982 0.19435692999999787
Cu 1.3030013500000024 2.7974451000000005 -0.47314636999999493
Zr 2.181301050000002 -2.7974451000000005 0.4462566300000077
Cu -0.7034988500000026 -2.1015852 -0.3309497700000037
Zr 0.8115005499999981 -1.9950455000000002 -2.3498477699999967
Cu -1.2804985499999972 0.23612469999999997 -2.4472446700000035
Zr 1.8455009500000017 1.0607850000000005 -2.3880481700000047
Zr -1.4536972499999976 2.3482949000000004 -0.8015460700000006
Cu 0.2838020499999985 0.01538489999999948 -0.22434427000000312
