17

Zr -2.2560249000000003 0.023149499999997047 -2.194049800000009
Cu -1.8304047999999997 2.266550099999998 -1.1530494000000076
Cu -2.0568648 -2.2397499000000014 -0.5540504000000013
Cu 0.22701539999999953 -1.9662513000000015 -2.1519508000000016
Zr 0.43865489999999996 0.7537498999999972 -2.9051475999999994
Cu 0.7412548000000005 2.6879501 -0.38685219999999987
Cu -1.5171346999999993 -1.9802513000000008 1.9003487000000021
Cu -2.7567548 -0.1547508000000004 0.3906516999999994
Cu -1.4603443999999999 0.2227496999999996 2.9051475999999994
Cu 0.5924549000000003 -2.6879501 0.4831505000000007
Cu 0.03509519999999933 2.130548499999998 2.101245999999996
Cu 2.4034546999999997 -1.3831501 -0.6089516000000046
Zr 1.2350549999999996 -1.1950512 2.3908501000000015
Zr 2.7567548 1.130048799999999 1.5393485999999896
Cu -2.2814545999999996 1.9417495999999996 1.574550600000002
Cu 2.4819555 1.4112491999999985 -0.7399483000000018
Zr 0.11029529999999932 0.27504919999999977 -0.0659522999999993
