15

Zr -0.8260021000000037 1.1507491499999993 -2.9347496
Cu -0.21070290000000114 -1.5172500500000048 -2.5331497000000063
Cu 1.7535000000000025 1.0233497499999977 -2.245651200000001
Cu 0.7928981999999962 -2.7420501500000007 0.6301498999999957
Zr 2.251100600000001 -1.9311523500000014 -1.4521484000000022
Cu -2.3816013 -1.6248512500000025 -0.8934517000000035
Cu 0.805700299999998 2.7420501500000007 -0.5603484999999999
Cu -2.767599099999998 1.028346949999996 -0.9915504000000048
Cu -1.054700799999999 1.7244491499999945 0.7311515999999934
Cu -1.0286998999999994 -1.64735035 1.4087485999999991
Zr 2.5995008000000013 -1.3345527500000038 1.9316521999999985
Cu 2.767599099999998 1.472549449999999 -0.14535140000000624
Zr 1.632497799999996 1.4316482499999985 2.3630485999999955
Cu -0.37910270000000423 0.1286468499999991 2.9347496
Zr 0.30599790000000127 -0.1957511500000031 -0.2381515000000043
