12

Zr 2.0805597149999997 -2.8553505 -0.7564010500000009
Zr -0.3652303849999967 -1.4054488999999961 -1.9094009499999984
Cu -1.495455915000008 -2.387550300000001 0.6856002500000002
Cu -0.6992102849999995 1.4891511000000008 -1.5361023500000002
Cu 1.302286715000001 0.550949100000004 -2.111801149999998
Zr 1.6174107149999983 2.8553505 0.1361007500000042
Zr 3.1538497149999998 0.15195090000000278 0.14150235000000322
Cu 0.990141715 -2.086952199999999 1.7274016499999973
Zr -3.153849715000007 -0.37884890000000127 0.6353988499999943
Cu 1.2089377149999976 0.17414860000000232 2.111801149999998
Zr -1.0937902849999972 1.6925506999999982 1.1519012500000017
Cu 0.3741447149999999 -0.31114960000000025 0.1166991499999952
