12

Zr 0.09159849999999992 -2.412498499999998 -2.2150974499999982
Zr -1.603099799999999 0.7248993000000041 -2.3366985499999977
Cu -2.4371985999999985 -1.3368988000000002 -1.127798049999999
Cu 2.1259994000000013 -0.3913001999999963 -2.0743999499999966
Cu 0.010200499999999835 -2.524898499999999 1.0577984499999964
Zr 2.5312996000000005 -2.4468001999999984 0.3617992500000007
Cu -2.5312996000000005 -0.08819959999999583 1.0930996500000028
Zr 0.18230060000000137 0.008701300000005574 2.3366985499999977
Cu -1.7882995999999984 2.269100200000004 1.7315044500000063
Zr -0.06570050000000194 2.524898499999999 -0.434797249999999
Zr 2.5303001000000016 0.7835999000000058 0.3023014500000052
Cu -0.24039829999999895 -0.2484016000000011 -0.14129824999999485
