12

Zr -1.6226997499999989 -0.6679992999999982 -2.595449450000001
Cu -2.7195015500000004 -1.5857010000000002 0.8484497499999977
Cu -0.8755989500000005 -2.4014014999999986 0.32864954999999885
Zr -2.3028984500000043 1.194499999999998 1.3640499499999992
Cu 0.18930045000000106 1.4850998000000004 -2.2074498500000006
Cu 2.684200350000001 0.5041999999999973 -0.7973499500000001
Zr 1.5581016500000011 -2.410800899999998 -1.476550050000001
Zr 2.7195015500000004 -1.944499999999998 1.1851501499999992
Zr 0.6982993499999957 -0.3329008999999985 2.595449450000001
Cu -2.053901749999998 1.6996995000000013 -1.094749450000001
Zr 0.7560005499999995 2.410800899999998 0.5893497500000011
Cu -0.09989935000000472 -0.23180010000000095 0.10085105000000016
