13

Cu -3.03125 0.23140144999999634 -1.2357128199999963
Cu -2.230350399999999 -0.8590984500000012 0.6670048200000025
Zr -0.15265270000000442 -2.2178973499999977 2.2221648200000033
Cu -1.3362503000000032 0.03550145000000171 2.8978145200000043
Zr 3.03125 0.04730034999999688 0.04587461999999931
Zr -2.004352400000002 2.309301350000002 1.7776148200000037
Cu 1.4016494999999978 -0.12019915000000125 2.612684420000001
Zr 1.2532501999999965 2.522600149999999 1.1589648200000013
Cu 1.5356483999999995 0.007600749999998158 -2.0689189199999944
Zr -0.6332511000000025 -0.703699150000002 -2.8978145200000043
Zr -0.2630499999999998 -2.522600149999999 -0.7046153199999949
Zr -0.6464500000000015 1.6455021500000022 -1.279413819999995
Cu 0.012649599999996042 -0.2539005500000009 0.56440482
