15

Cu -2.413299599999995 0.04034810000000277 -0.7622490500000012
Zr 1.1959991000000016 3.0208511000000016 -0.9574509500000019
Cu 2.1511992999999947 0.12334830000000352 -1.7236519499999972
Cu 0.3347015999999954 -0.7484511999999981 -2.6731491500000004
Cu -0.8087997000000016 -2.5649489999999986 2.305149049999997
Zr 0.9026031000000003 -3.3669510000000002 0.4169502499999993
Cu 2.504303 -0.7675514000000021 0.475948350000003
Cu -1.7761992999999947 2.2054481999999993 -0.6112518500000022
Cu -2.504303 -0.9786490999999984 1.5713500499999995
Cu 0.13359829999999562 3.3669510000000002 1.2527503499999995
Cu 1.5419005999999982 -1.2032507999999993 2.598751049999997
Zr 2.329902600000004 1.7127496000000022 1.618751549999999
Cu -0.06439970000000272 1.1216507000000036 2.6731491500000004
Zr -2.3292999000000023 1.688049300000003 1.757648549999999
Zr -0.12290189999999512 -0.051250500000001864 0.5421485500000003
