16

Zr 0.18815039999999783 1.6401815800000037 -3.005748799999999
Zr 1.9838505999999967 -1.8724608799999984 -2.476245900000002
Cu -2.662549900000002 1.639751480000001 -1.670345300000001
Zr -2.2107486000000023 1.726101380000003 2.006252400000001
Cu -0.9299487999999982 2.8975615800000014 -0.6388512000000119
Cu -1.3976497000000023 -1.3709654800000024 1.8567542999999986
Cu 3.096048400000001 0.10786147999999685 -0.8776512000000096
Cu 2.1532497999999975 2.293351180000002 -0.5790444000000079
Cu 3.1215496000000016 0.562211480000002 1.1981544
Zr 1.1348514999999963 2.523831379999997 2.1312522999999928
Zr -3.1215496000000016 -0.7928633800000071 -0.47044760000000707
Cu -1.175149900000001 -0.6596617800000004 -2.344547300000009
Zr -1.0239505999999992 -2.6325621800000008 -0.5983467000000005
Cu 0.6113491999999994 -0.31486658000000745 3.005748799999999
Zr 1.681348800000002 -2.8975615800000085 0.6849555999999879
Zr 0.33455089999999643 0.2851314799999969 0.0032539999999912084
