15

Cu -1.3594502999999971 -2.4312477000000072 -0.12227510000000086
Zr 0.7466497000000007 -3.0528526000000014 -1.6394951000000009
Zr 0.8199491000000005 -2.4517478999999938 1.3850748999999998
Cu 2.8956499000000004 -1.1188469000000012 0.4498045999999998
Zr -2.1619501000000003 -0.5379524000000018 -2.2159152000000004
Cu -2.8956499000000004 0.11034779999999245 0.04554489999999989
Cu -2.4916505000000004 2.0281486999999956 -1.5377853000000008
Zr -1.5188492999999976 2.968051899999999 1.0654046999999998
Cu 0.8216505000000023 3.0528526000000014 -0.3618853000000004
Cu -1.5200508999999993 -1.1138496000000018 2.231364999999999
Cu -0.0957498999999995 1.346447099999999 -2.9645251000000004
Cu 1.6610498000000025 0.06225210000000203 -1.8869755000000006
Cu -0.40795029999999777 0.912448899999994 2.9645251
Cu 1.577849500000001 1.4304541999999927 1.541014899999999
Zr -0.05824950000000051 0.06965260000000484 -0.04735530000000088
