14

Zr -1.6742000499999996 -2.175003050000008 -0.6415004500000006
Cu 2.203901250000005 -0.9890975500000039 1.5349998500000002
Cu 1.1694011500000023 -2.6089019499999964 -0.029399849999999006
Cu 2.439100249999999 -0.7484970500000045 -0.879400249999998
Cu -0.5953998499999962 -1.0540008500000013 -3.0338001499999994
Zr -2.439100249999999 0.830001849999995 -1.2449989499999976
Cu 0.38330265000000097 1.219299349999993 -2.2243995499999993
Cu 2.415800050000005 1.7229004500000045 0.595600150000001
Zr -0.3738002499999986 -2.675399750000004 2.1706009500000025
Cu -1.4601992499999987 -0.09459684999999496 2.5324001500000026
Cu -2.235399249999997 2.0114975499999943 1.1056003500000013
Zr 0.2918033499999986 1.6305008499999971 3.0338001499999994
Cu -0.0842991499999961 2.675399750000004 -0.05029865000000022
Zr 0.24510005000000135 0.0982971500000005 0.3203011500000006
