13

Zr 0.6374988500000001 -2.3106956499999995 -2.219848649999996
Cu 0.18580054999999618 -2.247501349999993 0.5631485500000011
Zr 0.9760990499999949 0.4793052500000101 -3.1665496500000003
Zr -2.082097950000005 -0.6758995499999969 -1.7103500499999953
Zr 0.30970194999999734 2.431598649999998 -0.8320465499999941
Cu 2.66340065 0.35280225000001053 -1.1318512499999898
Cu -2.54400055 -2.431598649999998 0.3850479500000077
Zr -2.66340065 0.09310535000000186 1.4888534500000006
Cu -2.3033999500000064 1.8530006499999985 -0.7145462499999908
Zr -0.3505992500000019 -0.5163002500000005 3.1665496500000003
Cu -0.8267993500000017 1.931102750000008 2.569549549999998
Zr 2.1029987499999976 -0.11729814999999633 1.2609481499999973
Cu -0.35700034999999986 0.008800550000003682 0.11315155000000487
