15

Cu -1.3343166499999997 -0.4461498000000006 -2.0732497999999993
Cu -0.16853664999999962 1.650648100000005 -3.1173496000000007
Zr -2.1511357499999995 -2.6032505000000015 -0.4581508999999997
Cu -2.5739517499999995 -1.5072497999999968 1.9839497000000001
Cu 1.1202132500000004 -2.0910511000000014 -1.0883502999999983
Cu -2.8160532499999995 0.27524760000000015 0.29775049999999936
Zr 2.81605325 -0.6257495999999989 0.612749100000002
Cu 1.2094932500000004 0.0721494000000007 -2.0126494999999984
Cu -1.8614057499999996 1.7813473000000002 -1.168949099999999
Zr 0.9073632500000004 2.6032505000000015 -0.797649400000001
Cu -0.3648867499999997 1.7970486000000037 1.378250099999999
Cu 1.9552734500000004 1.8232478999999984 1.5557499000000021
Zr 0.4307532500000004 0.3695507000000049 3.1173496000000007
Cu 0.9939132500000003 -2.105550799999996 1.5953502999999998
Zr -0.1658868499999997 -0.330850599999998 -0.06805040000000062
