13

Cu -0.6356797999999992 -3.0648498000000046 -0.2840002999999989
Cu -1.2968401999999992 -1.7669525000000021 -2.1756974000000007
Cu -2.2909803999999996 1.3592529000000013 -0.5533982000000002
Zr 2.3961300999999997 -1.876648000000003 0.37390130000000354
Zr -0.20622019999999974 1.2521514999999965 -2.5252991000000016
Cu -0.8966097999999993 3.0648498000000046 0.5955009000000011
Cu 1.3914294000000007 2.619949300000002 -1.1578979999999994
Zr -2.3961300999999997 -1.6790466000000066 1.3062019000000014
Cu 0.20383019999999963 -1.2875518999999969 2.3796996999999998
Zr -1.5796800000000006 1.2824478 2.5252991000000016
Zr 1.97473 1.0547485000000023 1.9435997000000036
Cu 2.3714299 0.07324979999999925 -1.3984986
Zr -0.20193999999999956 -0.1992493000000053 0.03580090000000169
