15

Zr 0.036148050000008425 1.3648004499999988 -2.156648700000005
Zr -2.788948050000002 -1.679400450000001 1.3420504999999991
Zr -1.7592544500000002 -1.9876995500000003 -1.6425496000000024
Cu -1.7488479499999983 0.667201050000001 1.9160517999999982
Cu -2.218948349999991 0.6003007500000006 -0.44864850000000445
Cu 2.788948050000002 0.36299995000000074 -2.3840502999999984
Cu 0.9624481500000002 -1.642199549999999 -2.482149100000001
Cu 1.8765487499999978 -2.8130998500000004 0.2632502999999957
Zr 2.5174484500000034 1.4144010500000004 0.014650299999999561
Cu 0.3991470499999963 0.757500649999999 2.482149100000001
Cu 0.8877487500000001 -1.527400049999999 2.4067515999999998
Cu 2.7660522500000013 0.1579999499999989 2.4459513999999984
Zr -0.13465114999999628 2.88119985 0.8213518999999962
Cu -0.5144500499999936 -2.88119985 0.9599513000000002
Zr 0.3783493500000077 -0.582798949999999 -0.10375030000000152
