14

Zr -1.9576511500000038 0.9462003499999998 -2.184547399999996
Cu 0.8323497499999988 -1.8203000499999984 -2.146247800000001
Cu -1.6082477500000039 -1.414099649999999 -0.7854500000000009
Zr 0.6610507500000011 -2.602099449999999 0.802051500000001
Cu 2.6106510500000013 -1.2074003499999986 -0.4598502999999958
Cu 0.561552049999996 2.602099449999999 0.019752499999999173
Cu -1.6727504500000023 2.3737001499999995 0.13154979999999838
Zr 1.2586499499999988 0.9134988500000016 -2.5741501000000007
Cu -2.6106510500000013 0.11429884999999906 1.220752700000002
Cu 2.5337505500000006 1.34599985 -0.5457496999999982
Cu -0.8724498500000024 -1.6435995499999994 2.5741501000000007
Cu -0.6270504499999987 1.0500993500000018 2.4206505000000043
Cu 1.4706516500000006 -0.2467012499999992 1.965152800000002
Cu -0.07734874999999874 -0.1750001500000007 0.16934960000000032
