15

Cu -1.6405487500000007 0.46765139999999406 -2.63859935
Zr -2.019748749999998 1.818252599999994 -0.4879988500000003
Cu 0.7607498499999963 0.6095504999999974 -2.8973007499999994
Cu -0.07495114999999686 -1.9963531000000074 -2.1026001500000007
Cu 0.5392494499999998 2.9455489999999998 -0.4745998500000006
Cu 2.354549349999999 -1.2500533999999988 -2.1658000500000014
Cu -0.788848950000002 -2.8447493999999978 1.867500249999999
Zr -2.6663513499999993 -0.14454650000000413 1.9633998499999983
Cu -1.913349150000002 -2.405853300000004 -0.24230005000000077
Cu 0.46044924999999637 -0.9133529000000067 2.8973007499999994
Cu 0.5027503499999995 2.038749699999997 1.7823009499999998
Zr 1.531848850000003 -2.9455489999999998 0.08200074999999885
Cu 2.6663513499999993 -0.30885310000000743 2.0333004499999987
Cu 2.6016502499999987 0.5693511999999998 -0.40069964999999996
Zr 0.07975005000000124 -0.21595000000000653 -0.02750015000000161
