12

Zr -2.5041990000000016 0.056999250000004054 -1.1864472500000076
Cu -1.2933988000000003 -2.3043975500000045 -0.6592484499999998
Zr 0.39010139999999716 -0.44429775000000404 -2.1345520500000035
Cu 0.8245000999999998 2.525802650000003 -0.8263473499999989
Cu 2.2629003 -0.9697036499999996 0.4899520499999923
Cu -1.2371987999999998 1.8098983499999974 0.36054984999999107
Cu 2.5041990000000016 0.9994964499999952 -1.0319519499999998
Zr 1.0154008999999977 0.8457031500000056 1.8736495500000032
Zr -0.3324995000000026 -2.373001049999999 2.1345520500000035
Cu 1.3556012999999982 -2.525802650000003 -0.8191529499999959
Cu -1.4404993000000008 0.5658035499999983 2.0792464499999923
Cu -0.2317991000000017 -0.49939725000000124 0.2569502499999956
