16

Cu -0.6094016500000023 -2.0585518000000036 -1.7821502500000044
Cu 2.5778999499999955 -0.6332512000000037 -1.008750850000002
Zr 1.7849006500000044 -2.761653899999999 0.3956489499999982
Zr -1.780002549999999 0.6693458000000021 -2.7075500499999983
Cu -2.5778999499999955 -0.9316520999999938 -0.059848750000004
Cu -1.8073997499999948 2.8600502000000034 0.3074493500000024
Cu 1.9195976500000071 1.8104514999999992 -0.8537520500000007
Cu 1.4455986500000009 -0.20205310000000054 -3.1511497499999983
Cu 0.4995002500000041 2.4491462000000013 -2.9755515500000023
Cu -1.3665962499999935 -2.8600502000000034 -0.0011520499999981837
Zr -1.9038963500000037 0.5752525000000048 2.499248550000001
Cu -0.4679984500000032 -1.8825492999999938 2.3735504499999998
Zr 2.5474967500000005 0.27914810000000045 1.2728500499999988
Cu 0.06969835000000302 2.7650490000000048 1.5190507500000017
Cu 0.38060385000000707 1.0108452000000057 3.1511497499999983
Zr -0.032398249999992856 0.14625170000000765 -0.296451550000004
