11

Zr 2.03125 -2.1322554999999923 -0.8358021000000022
Zr 0.14374919999999847 -0.5353544999999897 -2.6033992999999995
Cu 0.22584910000000136 1.883346600000003 -1.4474011000000004
Cu 2.4767495000000004 0.9890442000000021 -1.0304012
Zr -1.3311500999999986 -2.2596512000000004 -0.17590140000000076
Cu 0.7724495000000005 -2.0622557999999955 1.6229993000000036
Zr -2.4767495000000004 1.3202439000000012 0.1836985999999996
Cu -1.7349491000000015 -1.5648496999999892 2.2662983000000025
Zr -0.2640495999999999 2.2596512000000004 2.6033992999999995
Cu 1.7626494999999984 0.444351300000001 1.9939976000000001
Cu 0.11764910000000128 0.3632507000000018 0.2898005999999995
