12

Cu -2.1568838999999995 0.3283345500000001 -1.3390503000000038
Zr -0.15908579999999972 -0.6509950499999997 -3.3465500000000006
Cu -0.44719589999999965 -1.9966552499999999 -0.6581497000000027
Zr 2.1568839 0.6156046499999999 -0.8950500999999988
Zr -2.0872858999999995 1.7834347499999996 0.6609496999999962
Zr -0.08014589999999977 2.3806350500000004 -2.0425492000000034
Cu 0.9217941000000005 2.1782042500000003 1.1465529999999973
Cu 0.4245541000000004 -0.6397354499999999 2.3604507000000012
Zr -1.9659278999999996 -1.1892950500000001 1.6356505999999982
Zr -1.1158658999999997 1.6871145500000004 3.3465500000000006
Zr 2.1527440000000007 -2.3806350500000004 0.5932503000000011
Cu -0.1256558999999995 0.3484947499999995 0.1671523999999991
