13

Cu -1.2326150999999999 -1.0545978499999933 -1.6508483499999969
Cu 0.5195359000000002 1.6154995499999956 -2.381549849999999
Cu -1.2705752 -3.110502249999996 -0.37514875000000103
Cu -1.0241631 3.0211010499999986 -0.8880499499999956
Cu 2.0334648 -0.8742999499999939 -1.8163490499999995
Cu 2.1423949 -0.7488040500000039 2.3765487499999978
Zr 1.7226149000000002 -2.51630205 0.5551490500000043
Cu -0.9156580999999998 -0.6398028499999953 2.381549849999999
Cu -1.3183451 1.794897149999997 2.1596488500000035
Cu 2.3280350000000003 1.7670955500000076 -0.6054496499999971
Zr 0.8206629000000002 3.110502249999996 1.0543518500000033
Cu -2.328035 -0.44420044999999675 0.3021507500000027
Zr 0.09958790000000015 0.20069705000000226 0.2763519499999987
