15

Cu 1.4826398000000007 -1.2402452999999998 -2.2645034999999964
Cu -1.6417297999999998 1.397875299999999 -0.9640044999999944
Cu -0.7948599000000001 -0.7522243999999993 -2.6398009999999985
Cu -0.4093898999999994 -2.8596749 -1.8489989999999992
Cu 0.47814990000000046 -2.3474746 0.338699400000003
Cu 0.7475701000000003 1.4971747999999998 -2.0274048000000064
Cu 2.5647397 -1.5474353 1.180900599999994
Cu -2.0141896999999997 -0.9815649000000004 -0.7068023999999937
Zr -2.5647397 0.2589755 1.732795700000004
Cu 0.31774000000000013 2.8596749 -0.15499879999999422
Cu -0.2832097999999994 -1.4963449999999998 2.4798965000000024
Zr -1.4887498999999997 2.5884748 1.4039993000000024
Zr 1.2592597000000008 0.9667755000000007 2.6398009999999985
Zr 2.4100805000000007 1.2694755000000004 0.02040099999999967
Cu 0.019160299999999797 -0.17782449999999983 -0.36000059999999934
