16

Cu -3.0373497000000036 -0.42959980000000186 -1.3520508500000012
Zr -0.8966484000000001 -2.5935020999999985 -2.31045155
Cu -0.6123505000000016 0.09999850000000166 -3.0501518500000024
Cu 1.4069481000000046 -1.047599800000004 -1.940151250000003
Cu 3.0373497000000036 -1.0992011999999995 -0.48934925000000007
Cu 1.7628516999999952 0.3495978999999956 1.1872482499999997
Zr 1.5061531000000024 1.5046996999999998 -1.566448250000004
Zr -1.6925467999999988 2.1768990000000024 -1.7505493500000036
Cu 0.006450699999998477 2.7448005 0.16704944999999682
Cu -2.1551475000000018 -2.515899700000002 0.9511489499999932
Cu -2.736549400000005 0.8313979999999965 0.6834487500000002
Cu -0.45425030000000177 -1.2270012000000001 3.0501518500000024
Cu 0.7335510000000021 -2.7448005 -0.21905135000000442
Cu 1.789951299999995 -2.0121002000000026 2.1372489499999965
Cu -0.6399498000000001 1.1700972999999983 2.2522468500000024
Zr -0.42494970000000265 -0.3194008000000004 0.1969489499999959
