14

Zr -0.2359466999999995 -0.8655004000000002 -2.5758495000000003
Cu 2.2971495999999973 -2.8660002 0.9413508999999998
Zr -0.21424869999999885 -2.687001199999999 -0.5442523000000001
Cu 0.38774870000000305 -2.2687997999999983 2.3685474000000006
Cu -2.0166473999999965 2.414898899999999 0.9079494000000032
Zr -0.6387482000000091 2.5605001000000005 -1.8269520000000021
Zr -2.2696533999999957 -1.389000900000001 1.915849699999999
Cu 1.9703520999999995 -1.4684000000000008 -1.0884494999999994
Zr -0.17434699999999737 1.0165988000000024 2.5758495000000003
Zr -2.5693512 0.44569869999999945 -1.2330494000000023
Zr 0.8925476000000003 2.8660002 0.4807491000000006
Cu 2.179351799999992 1.042899199999999 -0.9805507999999996
Zr 2.5693512 -0.14540000000000042 1.3811473999999997
Cu 0.11215210000000297 -0.15900129999999812 -0.22525219999999635
