11

Zr -0.2839488500000016 -1.876700399999999 -2.0989971500000024
Zr 2.1343517500000004 -2.421999900000001 -0.49079705000000473
Cu -0.9726504499999962 1.5703993 -1.5996990499999981
Zr -2.77544975 -0.716799700000001 -0.9270000500000037
Cu -0.8381480500000009 -2.3935003000000012 0.5679035499999969
Cu 1.1776523500000025 0.5699987999999987 -2.2796001500000003
Cu -1.8219470499999986 1.2271985999999995 0.4395999500000016
Zr 0.9402523500000015 -1.0553997999999982 2.2796001500000003
Cu 2.77544975 -0.33680059999999834 0.7582034499999963
Zr 1.256650950000001 2.421999900000001 1.1944026500000007
Cu 0.4016514500000028 -0.426100700000001 -0.2560977500000021
