12

Cu -1.09611 -2.2419490500000023 -0.9961547500000023
Zr 1.8871300999999998 -2.4416484500000024 -1.1283492499999994
Zr 2.4202898000000004 0.5850506499999995 -0.8468474499999985
Cu 0.20121990000000034 -0.11144815000000108 -2.198852549999998
Zr -2.4202898 0.986951849999997 -0.7438506499999988
Zr -0.16595000000000004 2.6551494500000032 -1.2280501500000014
Cu 0.9270198999999999 2.569250150000002 0.9956512500000088
Cu -1.8637398999999997 -0.7915515500000012 1.646545450000005
Zr 0.3248498999999998 -2.6551494500000032 1.8355484500000046
Zr 1.9258402000000001 -0.18755145000000084 1.945251550000009
Zr -0.7339797999999997 1.5472507500000034 2.198852549999998
Cu -0.15101019999999954 -0.20965005000000048 0.2290497500000015
