15

Cu -1.1998481999999981 -0.7099494999999996 -2.709000549999999
Zr -1.130649599999991 -2.166149100000001 1.0374994499999985
Cu -0.18574910000000244 -2.2087498000000005 -1.5066995500000004
Cu 1.4555472999999992 -0.6114492 -1.8942994499999983
Cu 1.8025474000000017 -2.1318493 0.3295984499999989
Cu 1.1353493000000086 2.1344508999999983 0.4693994499999974
Zr 2.667652199999999 -0.1495495 1.5708018500000023
Zr -3.0588492999999985 -0.15814970000000006 -0.99729825
Cu -1.449550600000002 2.0677509999999986 -0.21649835000000195
Zr 0.7932472000000033 2.2087498000000005 -2.33409975
Cu 3.0588492999999985 1.4786501000000003 -0.9766988499999982
Cu -2.8896523000000016 -0.09714979999999951 1.5336008499999991
Cu 0.4990502000000063 -1.3049497000000008 2.709000549999999
Zr -0.5038489999999953 1.036050799999999 2.2202005500000013
Cu 0.10895160000000459 0.07415009999999977 -0.13280015000000134
