12

Cu -2.595949149999999 -1.2191505000000014 -0.6248755499999996
Cu -1.1996478500000016 -0.006250300000001374 -2.43629505
Zr 0.2466527499999991 -2.3563499000000014 -2.46678495
Cu 1.716749250000003 0.08505059999999887 -1.9656353500000003
Zr 0.23864934999999932 2.0057507 -1.5315251500000002
Cu 1.8576488500000004 -1.3670502000000013 0.5322947499999993
Zr 2.595949149999999 1.3442496999999989 0.9270844499999997
Zr -0.9113483500000008 -2.6424503 1.3347849500000004
Cu -0.297349950000001 2.6424503 0.7596849499999996
Zr -2.353349650000002 1.074850099999999 0.8977846499999993
Zr 0.2608509500000018 -0.11395070000000018 2.46678495
Cu -0.11395074999999721 -0.6501503 -0.3827949500000001
