11

Zr -0.6704978999999973 -1.0469450499999997 -2.4819002
Cu -2.2711982999999982 -0.15484474999999875 -0.466999999999997
Zr -0.047496800000001116 2.43285515 -1.2463006999999973
Zr -1.6684990000000006 2.53745505 1.1402998000000029
Zr -0.559497799999999 -2.53745505 0.44539930000000005
Zr 1.7137033000000024 -0.3266453499999997 -1.1736993999999985
Cu 0.6993027000000005 1.676854650000001 2.4819002
Zr -2.502799999999997 -0.8428454499999987 2.4275999000000024
Cu 1.295501699999999 -1.8330350499999994 2.2606002000000007
Cu 2.502799999999997 1.91045525 0.7978010000000015
Cu -0.06929779999999752 0.047854950000001395 0.7482996000000011
