15

Zr 0.9434202500000004 2.2794989799999996 -2.087999400000001
Cu 0.2646800500000004 -1.4139810200000014 -3.167100900000001
Cu -1.6863669499999998 -0.44828092000000197 -1.950800000000001
Zr 3.3213002500000006 -0.09491072000000145 -2.407201800000003
Cu -1.7216679499999996 1.017498879999998 1.6608981999999983
Cu -3.3344299499999996 0.34578888000000063 0.130899399999997
Cu 0.3095600500000004 1.0376590799999974 3.167100900000001
Cu -0.01197994999999974 -1.3074909200000064 2.3417987999999994
Zr 2.59209985 1.3047689799999986 2.1048984000000033
Cu 0.8920202500000003 -3.0697993800000063 1.2012995999999987
Cu 3.15578005 1.7051686799999999 -0.4194012000000029
Cu 3.33442995 -0.8249407200000007 1.0160006999999993
Zr 0.35507005000000014 3.069799379999999 0.9573992999999987
Zr -1.5121429499999997 -2.22332102 0.374700500000003
Zr 0.2761301500000002 0.038169279999998196 -0.34660149999999845
