16

Cu 2.3955498000000013 -2.2885493999999973 1.7801368699999998
Cu 0.24174879999999987 -2.440050099999997 1.915626870000004
Cu -1.602249099999998 -2.253648699999996 0.88698677
Zr -2.6167488 0.8742504000000046 1.5377466700000042
Cu -0.5664482 2.5879498000000005 1.0887067700000017
Zr -0.7180480999999936 -0.14484979999999936 3.0528766700000034
Cu 0.5779495000000061 1.8815518000000004 3.242606870000003
Zr 2.6167488 0.8806515000000026 2.267746670000001
Zr 2.246952100000005 2.5486506999999996 0.19879932999999994
Cu -0.35124970000000033 1.9450511999999982 -1.3903042700000015
Cu 2.2001495000000055 -2.084047299999998 -0.4444043700000009
Zr 0.1498489000000056 0.04375270000000242 -3.242606870000003
Zr -0.42704769999999925 -2.5879498000000005 -1.4456021700000008
Cu -1.8064498999999934 -0.0373477999999956 -0.8857037700000063
Cu 2.391151400000002 0.5058498000000036 -1.3567044699999968
Zr 0.5071487000000054 0.08015250000000052 0.36517667000000387
