13

Zr -2.7551517499999996 -0.7112999999999978 0.24029924999999963
Cu -0.8639507500000043 -1.7705993999999983 -1.3162040500000032
Cu -0.3268528499999981 -2.6711998 0.9452018499999966
Zr 2.7551517499999996 0.044498399999998384 -2.267803149999999
Cu 2.4821491500000015 -1.5170021999999967 -0.15110394999999954
Cu -0.46385005000000135 0.4416998999999997 -2.2904014499999974
Zr 1.8979511500000008 2.6711998 -0.935504850000008
Zr -1.1486530500000036 2.177200299999999 -0.3260002499999999
Cu -0.7298526500000015 -0.6275024000000009 2.0299949499999954
Zr 0.5143451500000005 2.3320007999999994 1.9165001499999974
Cu 1.972246149999993 -1.1777000999999991 2.2904014499999974
Cu 2.6307468499999977 1.0887984999999993 1.149700149999994
Cu 0.6679477499999997 0.08079910000000368 0.12469864999999203
