15

Zr 1.849452999999997 -1.2480845500000002 -2.398349699999997
Zr -1.2998467000000034 -1.86817505 -2.1451491999999988
Cu -1.9462470999999937 -1.7729354500000007 0.4682503000000011
Cu 0.994548800000004 -2.63326505 -0.18925099999999873
Zr -3.0160484000000025 0.7365651500000001 0.9969481999999985
Cu -1.286151899999993 2.63326505 1.0026474000000007
Cu -0.10684589999999616 0.8158650499999989 -3.0285492000000005
Cu 0.25874720000000195 2.169165149999999 -1.442550599999997
Cu -2.3975487000000015 0.5348648499999995 -1.686252600000003
Cu 3.0160484000000025 1.0255646499999993 -0.03635030000000228
Cu 1.7451515000000057 2.5741648500000003 1.1395492999999988
Zr -0.5256461999999971 -1.9917749500000004 2.7489471999999964
Cu 2.3714484999999996 -1.272474750000001 2.2924500000000023
Zr 0.9567528000000038 0.8551650499999996 3.0285492000000005
Zr 0.07985299999999995 0.2421650500000001 0.2211494000000016
