15

Zr -1.5235004999999973 0.004997200000005364 -2.234750700000001
Cu 0.9061985000000021 1.0601958999999965 -2.574850100000001
Cu 1.7837010000000006 2.4673997000000014 -1.1587505000000018
Zr -1.8477991999999972 -2.180702199999999 -0.27084920000000245
Cu 0.1995983999999993 -2.618698100000003 -1.595050800000001
Cu -1.0342997999999994 -0.7526015999999913 2.0240497999999985
Cu 1.0618991999999992 -2.4172973000000013 0.5005492999999976
Zr 3.070398300000001 -0.836799599999992 -1.0120506000000002
Zr -3.074598299999998 0.5674972999999994 0.28974929999999866
Cu -0.6600017999999963 2.375099200000008 -0.36445040000000084
Cu -0.20189859999999982 2.618698100000003 2.0766507
Cu 1.1135006000000018 0.0491028 2.574850100000001
Zr 3.074598299999998 1.4729995000000002 1.280050300000001
Cu 2.7124004 -1.2268981999999937 1.5779495999999984
Zr 0.23359880000000288 0.32679749999999785 0.24424950000000045
