15

Zr -2.6264495500000002 -0.07707972999999413 -1.2312507499999974
Cu -0.5807495499999966 1.3810520300000064 -2.8486480499999978
Cu 0.3995513499999994 -0.9506836300000003 -2.6200485499999964
Zr 2.3350524500000027 -2.4860840300000007 -1.0210495499999972
Cu 2.1536521500000028 0.19421386999999868 -1.7194480499999933
Cu 1.3766517500000042 2.648681630000006 -1.8417510499999956
Cu -1.5566482499999985 1.30380203 1.330146850000009
Cu -0.9230499499999958 2.282011930000003 -0.25624834999999635
Cu 0.8003502499999975 -0.3083801300000033 2.8486480499999978
Zr 1.3265495499999993 2.4987220300000033 0.8125496500000047
Zr -1.7305488500000017 -2.6486816299999987 0.17955015000000785
Cu -1.9901503499999968 -0.9764862300000061 1.9773483500000033
Cu 2.6264495500000002 -0.5316849299999973 1.3831482500000085
Cu 0.3947525500000033 -2.216079730000004 1.7518464500000057
Zr 0.11675264999999868 -0.15018462999999826 -0.10435104999999467
