13

Zr -1.8168182000000002 -1.1014022499999925 -2.4220484999999954
Cu 0.9726919 -1.4763030499999985 -1.757146800000001
Cu -1.4542281000000001 1.407096850000002 -2.442850100000001
Zr -2.3106791 2.0260009499999967 0.23185159999999883
Zr 0.7279819000000001 2.4075012499999957 -1.4664477999999974
Cu -0.6348881 -2.4075012499999957 0.0327510999999987
Cu -2.4359921 -0.6234054499999928 0.230352400000001
Cu -1.2839781000000001 -1.3175047499999977 2.3099500000000006
Zr 1.5456718 -1.435005149999995 1.6303501000000011
Cu -0.6180882000000003 1.2761993499999988 2.442850100000001
Cu 1.4166621 2.0575943500000022 0.9131527000000048
Cu 2.4359921 0.28540044999999736 -0.5826472999999979
Cu -0.14470810000000034 0.12509914999999694 0.15165139999999866
