16

Cu 0.07084350000000006 -3.105701350000004 -0.31630335000000187
Cu -1.1669263 -1.4660988499999945 2.02229685
Zr 0.8273836000000001 -1.0854987499999993 -2.83300015
Cu -1.7449964 -1.820697850000002 -0.584602450000002
Cu 2.6616934000000003 0.700397449999997 -2.0062027500000035
Zr -1.8797214 0.324901550000007 -2.0120010499999985
Cu 2.5795234 -1.5762977499999948 -0.35740285000000327
Cu 2.5687636 0.43550485000000094 1.6416968499999989
Zr 0.6618436000000001 2.610004349999997 -1.9180031500000005
Zr -2.6616934 0.5846976500000096 0.9928969499999987
Cu -1.0314964 2.387203150000005 1.322696650000001
Cu -1.9725674 2.5358009500000094 -1.0125008499999986
Zr 1.2655237000000001 -2.485301949999993 2.0794982499999968
Cu 0.008383600000000158 0.9041022500000082 2.83300015
Zr 1.5667337 3.105701350000004 1.6609000499999986
Zr 0.5758036 0.46280285000000276 0.08119964999999851
