12

Zr -1.0471548500000005 -0.14781231999999989 -2.8706474499999963
Zr -1.0894450500000006 2.4236273800000063 -1.860050249999997
Zr -2.51594495 -1.05285078 -0.5034485499999981
Cu 2.51594495 -1.055462519999999 -2.079147349999996
Cu 2.13276535 -2.764047579999996 4.955000000350651e-05
Zr 2.19029475 2.2338475800000026 -0.9714508500000001
Zr 0.8316445500000005 -2.7202472799999953 -2.5575485499999964
Zr 0.8526053499999997 -0.005642319999992651 2.8706474499999963
Cu 1.2322154500000004 2.7640475800000033 1.4152526500000029
Zr -1.02171515 1.4041075800000016 1.1001511500000056
Cu -0.11124515000000068 -1.5447483800000015 0.8517494500000033
Cu 0.2065649499999993 -0.06490231999999452 -0.6506500499999994
