12

Zr -1.7878146000000008 -0.4651747000000004 -2.288353000000008
Zr 0.7249254999999994 0.4116248999999996 -3.1281509000000014
Cu 0.0489259999999998 2.4451254999999996 -1.0052491000000074
Zr 2.3488249999999997 1.8465252000000003 -0.11994930000000892
Zr -0.40817499999999995 -2.766325 0.8691481999999908
Zr 2.188825099999999 -1.4088744999999996 -1.3244476000000063
Cu -2.3488249999999997 0.46112530000000085 1.355148299999989
Cu 2.203825499999999 -1.3906746000000005 1.1504515999999896
Zr -0.5654750000000011 -0.3930749999999996 3.1281509000000014
Zr 1.8263258999999987 0.5284252000000009 2.751548800000002
Zr -0.21137479999999975 2.766325 1.9234466999999924
Cu -0.09727430000000048 0.3816251000000008 0.23335259999999636
