15

Zr -3.1232490500000054 -0.2148942999999992 -1.2875003500000055
Cu 1.7929497499999982 0.048504899999999296 -1.9845981500000072
Zr 1.0651512500000067 -3.0619049 -1.6019001500000023
Cu -0.4781532499999983 1.1611051999999997 -2.7810993500000016
Cu -1.250247850000001 3.0619049 -1.4250011500000035
Cu 1.093051850000002 2.2994050999999995 -1.4736995500000027
Cu -2.5449485499999938 -0.6294945999999992 0.920900349999993
Cu 1.5458488500000058 -1.742094999999999 0.8552036499999893
Cu -0.6488533500000031 -2.3503942 0.37460144999999656
Zr -0.9857521500000033 -1.0963945000000006 2.7810993500000016
Zr 3.1232490500000054 0.9854050999999995 0.19009974999999812
Cu 0.8858451500000015 0.37580490000000033 2.0443973499999935
Zr -2.1964530499999952 1.9865054999999998 1.02820015
Cu 1.8841514499999974 2.7412053000000007 1.359499049999993
Zr -0.08665085000000516 0.17020510000000044 -0.31149865000000787
