13

Zr 0.6554489000000032 -0.443151450000002 -2.905300150000002
Cu -1.5465469000000027 -1.8896503500000037 -0.18969735000000298
Cu 1.198951700000002 -2.355550749999999 -0.38559725000000356
Cu -0.1866530999999938 -2.2918491499999973 1.8454017500000006
Zr -2.650848399999994 -0.5989513500000001 1.593002349999999
Cu 2.2775497999999956 -1.8794498500000003 1.5452995500000029
Cu 2.650848399999994 -0.26484874999999874 -0.6077995500000029
Cu -2.266052199999997 0.6082477499999968 -1.0338974499999978
Cu -0.5593490000000045 1.2801494499999961 2.905300150000002
Cu -1.1954497999999987 2.355550749999999 0.4426994499999992
Cu 1.400550900000006 2.025548950000001 -1.1800995500000013
Zr 2.4157485999999935 0.8595485499999995 1.7288016500000012
Zr 0.04115300000000133 0.08365055000000154 0.3552017499999991
