10

Zr -0.45164964999999935 1.2849045999999973 -2.008197799999998
Zr -1.7364501500000005 -1.5551986999999983 -1.4579963999999919
Zr 1.565350549999999 -2.481498699999996 -0.732395199999992
Zr 0.7349501500000004 -0.5018997000000027 2.2457008000000016
Cu -1.4656495499999993 -1.6828994999999978 1.211704200000007
Cu -2.271149649999999 1.0727996999999974 0.21540449999999822
Zr 0.16425035000000054 2.481498699999996 0.7097053000000031
Cu 2.271149649999999 0.573104899999997 0.3982047999999949
Cu 2.0586500500000016 0.11260220000000487 -2.2457008000000016
Cu 0.0556497500000015 -0.3224944999999977 -0.1282995999999983
