13

Zr -1.7109527999999976 1.8528004499999966 2.6729507000000012
Zr 1.6884498999999984 1.9731998500000003 1.7457503999999915
Cu -1.2592505999999979 -0.7833995500000057 -2.614349400000009
Zr -0.4033508000000019 1.811800049999995 -2.6729507000000012
Zr 1.4908486000000032 -1.8852024500000013 -1.7580489000000057
Cu -2.003150999999999 -1.757299450000005 0.3638457999999929
Cu -0.47385019999999756 -0.4736995500000063 2.3029480999999947
Cu 0.17014690000000243 -2.93110085 0.6399459999999948
Zr -2.6636504999999993 1.6217975499999966 0.021049499999989507
Cu 1.6572495000000025 -0.7188014500000008 0.6811446999999902
Zr 2.6636504999999993 1.1968975499999956 -1.0874481000000031
Cu -0.4590530000000008 2.93110085 0.5187454000000002
Cu -0.2099494999999969 0.43620114999999515 0.12245179999999323
