17

Zr 1.3840485499999957 -0.8567008499999993 2.802589420000004
Zr 1.5909500499999965 -3.2728996499999994 0.3013794200000035
Cu -1.1576537500000015 1.4874001499999991 2.085959420000002
Cu -1.6909484500000005 -1.1707000500000007 2.48561952
Cu -1.1799468500000003 -2.45440095 0.4117893199999969
Cu -0.24954985000000107 3.2728996499999994 0.07350918000000206
Cu -0.17594905000000693 -2.637500750000001 -1.9896927200000079
Zr -2.898651149999999 0.8593998499999991 0.5749692199999998
Cu -2.151451150000007 1.7580986500000009 -1.524894720000006
Cu 1.3825531499999997 -0.7968005500000004 -2.420593320000009
Cu -0.8192519500000017 -0.7082004499999996 -2.802589420000004
Cu -2.608047450000008 -1.6475009500000013 -1.3051911200000035
Cu -0.08215324999999751 1.4280987500000002 -1.8659897200000017
Zr 1.8829498499999957 2.4560986500000013 0.32820887999999115
Cu 2.7959518500000016 -0.9123000499999989 0.04721067999999207
Cu 2.898651149999999 0.891399449999998 -1.7073899199999971
Zr -0.07565305000000677 -0.07380105000000015 0.1840056799999985
