15

Zr -2.4370503 -1.4521522499999975 -1.4575500999999997
Zr 0.3154397999999996 -2.78924945 -2.005149799999999
Cu 1.9695797999999995 -1.6113471500000003 -0.0703497000000004
Cu -0.8317502999999999 -2.2739447499999983 0.7855501000000009
Cu -1.5337304 2.6442527499999926 -0.5838498999999997
Cu -0.6778904000000003 0.2743492500000002 -2.491849899999999
Zr -2.9630094000000002 0.5973548500000021 0.30294990000000066
Zr 1.8670297999999996 -0.14114754999999946 -2.8277501999999997
Cu 0.5831995999999999 2.26034924999999 -2.0078497000000004
Cu 2.9630094000000002 0.473651849999996 -0.5357504000000004
Zr 1.0898796000000002 2.78924945 0.5976495999999996
Cu 1.4394394 -0.37094495000000904 2.410550100000001
Cu -0.7518405000000001 -1.0081520500000067 2.5906496000000017
Cu -0.39547029999999994 1.6827507499999967 2.8277501999999997
Zr 0.12630950000000007 0.07225414999999202 0.0691499999999996
