16

Cu -0.14505004999999915 -1.1524982499999972 -2.46259975
Zr -0.43025015 -2.89100075 -0.4024991499999997
Zr -0.024049750000000536 0.5575008500000003 3.178099650000001
Cu -2.4965496499999995 -0.12439914999999857 1.3939008499999987
Cu -2.78044975 -1.7087993500000032 -0.6588993500000013
Zr 2.4299487500000003 -0.6420001499999977 1.1080007499999995
Cu 1.9638500500000005 -1.2712993500000032 -1.4232997500000009
Cu -1.8916511500000022 1.5393010500000024 -2.4562997500000003
Zr -2.960050550000001 2.322000550000002 -0.30689905000000106
Cu -0.6368503500000005 2.89100075 1.3482999499999986
Cu 0.15175054999999826 2.7367000499999996 -1.1160993499999998
Zr 0.7546500499999977 1.1584987499999961 -3.178099650000001
Zr 2.960050550000001 1.1633014500000023 -1.3141994500000012
Cu 1.3337498499999993 2.1373996500000025 1.0094995499999984
Zr -0.505350149999999 -2.2997989499999996 2.636700649999999
Zr -0.2732505500000011 -0.1261005500000003 -0.0845002500000005
