12

Cu 2.398399350000002 -1.1612491499999962 -0.6316451500000042
Zr -0.04820245000000156 -2.8220500500000014 -0.21664415000000048
Zr 0.8549995499999987 -0.45924955000000267 -2.700149549999999
Cu -2.006900650000002 -0.15994835000000052 -1.418350150000002
Zr -0.2546996500000027 2.8220500500000014 1.1896515500000007
Cu 1.1821975500000015 1.6909503500000014 -1.4723510499999932
Cu 2.0895996500000003 1.2779521499999973 0.8475494499999954
Zr -2.012302250000001 -1.1924496500000004 1.7093506499999975
Cu 0.8061981499999966 -1.5167484500000015 1.9499511499999969
Cu -2.398399350000002 1.16145135 0.45145414999999645
Cu 0.012798350000000625 0.5965518499999973 2.700149549999999
Cu 0.30879975000000215 -0.08004954999999825 0.08385464999999925
