13

Cu -1.3542996000000045 -2.5124502 -0.5546846500000004
Cu -1.6711979000000028 2.0656499000000004 0.7600450500000004
Zr -2.3665981999999985 -0.2311507000000006 -1.9901547500000003
Zr -2.7091999000000015 -0.8495512000000005 1.20814515
Cu -0.5565967 2.140450399999999 -1.5505846500000002
Zr 0.9289035000000041 -1.4279508000000014 -2.2145848500000005
Cu 1.6596011999999973 1.3730496999999993 -2.75204465
Zr 2.7091999000000015 -0.7364512000000012 -0.2264046500000001
Zr 1.7688998999999939 2.5124502 -0.023874750000000056
Cu 0.3419017000000011 -2.102749899999999 0.9076347499999997
Cu 2.2086048000000034 1.8215493999999985 2.3626451500000005
Zr 0.027200700000001632 0.3803491000000001 2.75204465
Cu 0.0453013999999996 0.340249 0.20433524999999975
