12

Cu -0.7126503 -2.481998400000002 0.686248749999999
Cu -2.014949699999999 2.481998400000002 -1.5829505500000014
Cu -0.08234970000000175 -1.5753975000000011 -1.6235504500000015
Cu -1.9642505999999997 -0.03159709999999194 -1.9426498500000005
Zr 2.4512500999999993 -0.44589619999999996 -2.1264514499999994
Zr 0.35395049999999983 1.3697014000000038 -2.3170509500000005
Zr -2.4512500999999993 -0.461398999999993 0.3769493499999985
Zr 1.9462490999999993 1.4296988999999982 0.5410499499999997
Cu -1.1374493 1.677097300000007 1.2266503499999981
Cu -0.11065089999999955 -0.4308967999999922 2.3170509500000005
Cu 1.8554497000000012 -1.3916967999999983 0.46685024999999847
Cu -0.13665010000000066 -0.053302800000004424 -0.10375024999999916
