13

Cu -1.6001511000000015 -1.8862991999999998 -0.9870795799999996
Cu 1.1516495000000013 -2.5340004 -1.85543938
Zr 2.790847699999997 -0.3591996000000002 -1.0401596800000021
Zr -1.560150199999999 -0.8943977999999966 2.2316103200000015
Zr -2.235149400000001 0.7554015000000014 -1.5580496800000034
Cu -2.983650199999996 1.2795027999999995 0.9621205199999991
Zr 0.10845180000000809 -0.09059909999999505 -2.9034805200000022
Cu 0.290748599999997 -2.135097599999998 0.8737207200000014
Zr -0.2996481999999965 1.989799400000006 1.20137072
Cu 2.983650199999996 0.7727012000000038 1.10299062
Zr 0.33505249999999975 2.5340004 -1.566069579999997
Cu 1.265151999999997 0.3944015000000043 2.9034805200000022
Cu 0.23225400000000818 -0.13899999999999935 -0.16159958000000074
