14

Cu 0.571849799999999 -2.0231504499999993 -1.912950549999998
Cu -0.9594498000000051 0.33595185000000427 -2.6838512499999965
Cu 1.7650490000000012 0.42985055000000116 -1.8491497499999952
Cu -2.2832489000000002 -0.09504794999999788 -1.1178493500000002
Cu -2.3810500999999995 -0.21965115000000068 1.6169490500000094
Zr -2.1184502000000016 -2.6514501499999987 -0.400548950000001
Cu -2.026950800000005 1.6535520499999983 0.21304905000000218
Zr 0.8599509999999988 2.6514501499999987 -0.23554804999999845
Cu 1.7252502000000014 -1.611050549999998 2.6838512499999965
Zr 2.194751700000001 -2.089249549999998 0.08115194999999886
Zr -0.20235059999999905 0.743849749999999 2.3208522500000086
Cu -1.029049000000004 -2.0092497499999986 2.5202541500000066
Cu 2.3810500999999995 0.5830488500000008 0.5570506500000008
Cu 0.007450199999997409 -0.3018503499999987 -0.03904914999999676
