15

Cu -1.9700995 0.5995520300000052 -1.1404757499999993
Cu 1.1864004000000001 1.1556518300000036 -1.1304755500000008
Cu 0.4200009999999992 2.973011730000003 1.1232247499999994
Cu 1.5950002999999988 0.8870118300000058 1.5701250500000006
Cu -1.8196993 1.9682920300000077 0.9598250500000001
Cu -1.7972994 -2.64210963 -0.8199753500000009
Zr -2.821000099999999 -0.8544126299999917 0.9981245499999991
Cu 2.821000099999999 -0.6515166299999962 0.263124949999999
Zr -0.16610049999999887 -0.39111012999999417 -2.7933249499999997
Cu 0.5868006000000001 -2.973011730000003 -0.9694752499999995
Cu -0.5259999999999998 -2.7608152299999986 1.537524649999999
Cu -0.33529940000000025 -0.40471332999999987 2.7933249499999997
Cu 2.7494002 -1.4123122300000048 -2.0846753500000004
Zr 1.9263009999999987 -2.6314132299999997 2.0766243500000003
Zr 0.19369980000000098 -0.5067107300000018 0.3485245499999996
