12

Zr -0.7121506500000052 -0.7586994500000017 -2.5218506000000005
Zr -2.3706512500000017 -1.4109020499999971 0.3964501000000027
Cu -0.3123474499999972 -2.6042995500000004 0.43865010000000026
Zr 2.5929489500000003 -1.868402549999999 0.7007503000000028
Cu -0.8173446500000026 2.6042995500000004 0.22895049999999983
Cu 1.9781494499999965 -0.8218021499999963 -1.8249493
Zr -2.5929489500000003 1.0460986499999976 -1.4087505
Zr 1.0406494499999965 1.7782992500000034 -1.6758498999999993
Zr -1.2593460499999978 0.794000650000001 2.4994507000000006
Cu 1.0218506499999975 -0.9666996500000025 2.5218506000000005
Cu 2.1892547499999964 0.7460994500000027 0.8442497000000024
Cu 0.17794794999999652 -0.28080175000000196 0.3770504000000017
