14

Zr -2.479750649999998 -1.1945495000000008 0.09514805000000237
Cu -0.2186497499999991 -2.6861496000000002 0.2094478500000001
Cu -2.9061498500000003 1.5795517000000032 -0.5076503500000022
Cu -1.9447508500000001 0.40525059999999513 -2.410249650000001
Cu -2.4243497499999993 1.7524490999999998 1.87314795
Cu 0.799250650000003 0.5645446999999919 -2.6743488499999977
Cu 1.5344495499999997 -1.1408539000000033 -1.2704486500000023
Zr 2.9061498500000003 0.6185455999999974 1.360548050000002
Cu 2.7854510500000007 0.6330489999999926 -1.5652484500000021
Cu -0.4353494499999986 2.595146199999995 -1.484849950000001
Cu 1.3444509500000006 -1.780754100000003 1.3075504499999973
Cu -0.2129507499999992 0.3141479999999959 2.6743488499999977
Cu 0.45674995000000074 2.6861496000000002 1.4076480500000024
Zr 0.07675075000000042 0.17024989999999462 0.2146512499999993
