15

Zr -0.048349399999997544 -3.1404514500000005 -1.33556535
Cu -1.2302494 0.19164855000000358 -2.37737535
Cu -2.541549699999999 -1.786249049999995 -1.2250850500000001
Zr -0.5130500999999992 3.1404514500000005 -1.4236653499999998
Zr 1.783250800000003 1.6726512500000013 -2.8300549499999996
Cu 1.0882492000000017 2.462148650000003 1.0005052500000002
Cu 1.8401508000000018 -1.2992496500000001 -2.26252535
Zr -2.4755497 -0.8400478499999977 1.3104646500000006
Cu -0.9274501999999973 1.2900485500000016 2.67065495
Cu 2.5991497 0.9351520499999992 -0.4630849500000003
Cu 2.1567497000000007 -1.7918490499999962 0.7693145499999994
Zr 0.4171505 -2.226648349999998 2.8300549499999996
Cu 1.1549492000000026 0.5398502500000006 2.5457150500000005
Cu -2.5991497 1.1281490500000046 -0.4047253500000001
Zr 0.2150496999999998 -0.15474894999999833 -0.08723524999999954
