14

Zr -1.7892900000000012 -0.28955030000000015 -1.8024978999999988
Cu 0.830810099999999 -1.7763495000000002 -1.7243996000000053
Cu 1.7728105000000003 0.6208501999999978 -2.7266997999999987
Cu -2.8173098999999997 -1.0514501999999997 1.036800399999997
Cu -0.31389000000000067 1.6371504000000012 -2.023597600000002
Zr -0.8622899000000004 -2.7862495999999997 0.2899017000000015
Zr -0.7476897000000005 -1.0624499000000007 2.7266997999999987
Cu -0.5281900999999998 2.0173496999999987 1.7899017000000015
Cu -1.9734893000000007 1.8922505000000012 -0.09019839999999846
Zr 1.6569103999999992 2.7862495999999997 0.3538016999999982
Cu 1.9287104999999993 -1.1332497999999998 1.2330016999999955
Cu 2.8173098999999997 -0.0008502000000003562 -0.2985992000000053
Cu 1.8485102999999992 0.9382500999999994 2.180103299999999
Cu 0.13981010000000005 0.09095049999999993 0.11950300000000169
