13

Zr -2.2984494500000014 0.11999890000000235 -2.881349599999999
Cu -0.16055004999999944 -1.3152008999999971 -1.8766498999999994
Zr 0.611050650000001 0.7975005000000017 -3.2020501999999995
Cu -2.8308496499999993 0.6698989000000033 -0.2207499000000004
Zr -2.605050050000001 -1.5667000000000009 1.2267503
Cu -0.3471498499999992 -2.5433997999999995 0.43565079999999856
Cu 2.8308496499999993 0.05720129999999912 -1.6074495000000004
Zr 1.59224985 -0.7782974999999972 0.3417500999999996
Zr -0.5391492499999995 -0.8017998999999953 3.2020501999999995
Cu -1.7479504499999994 1.340099300000002 1.800549600000001
Zr -0.97644895 2.5433997999999995 -1.1748494000000003
Cu 1.0161505500000008 1.995700700000004 1.0969494999999982
Cu -0.5877504499999997 0.24930180000000135 -0.27384949999999986
