17

Zr 0.5428991500000002 -0.12285045000000139 -3.318594899999999
Cu -0.6219014499999993 -2.130350049999997 -1.9712046999999995
Cu -2.333001150000001 -0.36485094999999745 -0.5100049999999996
Zr 1.7688989500000005 -1.9917507500000013 -1.0635050999999986
Cu -1.8638009499999981 -2.5773525500000005 0.20569520000000097
Cu 3.0661001500000005 0.325250650000001 -0.2241048999999986
Cu -1.79699995 1.3101482499999975 -2.6324053000000003
Cu 0.8259992499999989 2.6211490499999996 -1.9579047999999997
Cu 0.42829994999999954 -2.818750350000002 0.9159947000000006
Cu -0.7150011499999991 -1.2259502499999968 2.161295000000001
Zr 2.29399965 -0.6616497500000023 1.7773953000000002
Zr -2.7469015500000005 0.7698497499999988 2.2971953999999997
Cu -3.0661001500000005 1.9554500500000032 -0.49420549999999963
Zr 0.4648999499999995 1.0256482500000033 3.318594899999999
Cu 1.4799985500000012 1.9347477499999997 0.8091946000000014
Cu -0.9197015499999992 2.818750350000002 1.6615954000000013
Zr -0.3144006499999996 0.6184482500000001 -0.07850449999999931
