13

Zr -0.517654450000002 -2.7083015500000016 -0.47148984999999977
Cu 1.1757507499999988 -0.5089988499999976 -2.69779015
Cu -2.8102493499999994 -0.49170304999999814 0.6413602500000004
Cu -0.973854050000007 0.4011040500000007 -2.26952985
Cu 1.9985504500000033 -2.1977958499999914 0.6105699500000008
Cu 2.8102493499999994 -0.37639984999999854 -0.5971298499999995
Zr -1.5185546500000058 1.8344001500000076 -0.30747984999999955
Cu 1.2154464499999946 2.212398550000003 -1.0057702499999999
Zr -0.5512542500000066 -1.107295949999994 2.5612601499999994
Zr 2.0560455500000003 0.22480395000000897 2.0213203500000003
Zr 0.3261489499999968 2.7083015500000016 1.932200350000001
Cu -1.9304504500000021 1.3210029500000076 2.69779015
Cu 0.26424404999999496 -0.05319595000000277 0.3790201500000001
