15

Cu -2.4394493999999973 0.46040155000000027 -1.3266525000000016
Cu -0.6955490999999974 -1.1422977499999973 -2.5846481000000026
Zr 2.560249299999999 0.38239864999999895 -1.7480468999999985
Cu 0.533851600000002 2.281301550000002 -2.593650799999999
Cu -0.1770516000000022 2.8211994500000017 -0.0848464999999905
Zr -0.6005517000000005 -2.8211994500000017 1.017852800000007
Cu 1.9429510999999984 -2.139898350000003 -1.3962478999999988
Cu -2.927749600000002 1.8985004500000002 0.3597489000000067
Cu -2.208351199999999 -1.8026981499999977 -0.7197494999999989
Cu -0.9979515999999968 -0.775400150000003 2.593650799999999
Cu 2.927749600000002 -1.9265003499999978 0.7662505999999993
Cu 1.5564497999999993 -0.7671985500000034 2.5393524000000056
Cu 2.2385482000000003 1.3062992500000021 1.2794495000000055
Zr -0.5589485999999972 1.900598549999998 2.231651300000003
Zr -0.08124929999999964 -0.06599994999999836 -0.3112487999999942
