13

Zr -1.4276345650000124 0.3270892700000019 -2.633051
Zr 1.5395629650000018 2.541311230000005 -0.45865060000000035
Cu -0.18532883499999997 1.602820830000006 1.713350199999999
Cu 1.4611011649999952 -2.541311230000005 0.01734730000000262
Cu 2.9588311649999994 0.6263828700000005 0.6413478000000037
Zr 1.9435571650000014 -0.30131342999999333 -1.9019508999999974
Cu 1.153816165000002 -0.3281154299999969 1.8231487000000026
Zr -2.9588311649999994 -1.0398159300000032 -0.40035059999999767
Cu -0.9386283650000067 -2.390714630000005 -0.5653515000000002
Cu -0.9422295650000123 2.2551708300000044 -0.829650899999999
Zr -2.44322896500001 0.8014851700000065 1.7988490000000024
Zr -1.0839302649999993 -1.777715729999997 2.633051
Cu 0.034951065000001336 -0.47211262999999803 0.06685060000000043
