12

Zr 0.17139999999999844 -1.5883341299999998 -2.2538986500000036
Zr -0.39650160000000056 2.6082315300000047 1.8443984499999928
Cu -0.674203900000002 2.471431730000006 -1.0813980499999971
Zr -2.698202199999997 0.07846737000000559 0.660201949999994
Cu -0.29979900000000015 -0.13693332999999797 2.2538986500000036
Cu 2.5053997000000052 1.2815694700000009 1.2444991500000029
Cu -1.8528003999999996 0.6913671699999995 -1.853195250000006
Zr 1.6042995000000033 1.5841116300000024 -1.8286972499999976
Cu -2.698400499999998 -1.9049311300000014 -1.088897749999994
Zr -0.1362018999999961 -2.6082315300000047 0.8045043499999949
Zr 2.698400499999998 -1.4784326299999933 -0.40429694999999555
Cu 0.06960099999999869 0.237669970000006 -0.060295149999994635
