12

Zr -2.3201523 -1.7843503500000004 0.9397501499999992
Cu -0.608951600000001 -2.356650349999999 -1.2469506499999978
Cu 2.127952599999997 -2.091050150000001 -0.827150849999998
Zr -2.0652504 0.3966474499999997 -1.4164509500000007
Zr 0.8634490999999933 -0.14175124999999866 -2.498349649999999
Cu 0.3814505999999973 2.2151479499999986 -1.813950049999998
Cu -0.9617500999999997 2.356650349999999 0.17925024999999994
Cu 2.3201523 1.0400495500000027 -0.2268490500000011
Zr 0.9913482000000009 -1.9378498499999992 1.551349150000001
Zr -1.1088524 0.9492483500000013 2.498349649999999
Cu 1.645851099999998 1.5458479499999989 2.0718493500000017
Cu 0.11745069999999558 0.34495074999999886 0.35304975000000116
