15

Cu -2.1767978500000034 -2.3328352 -1.9962501500000016
Zr 1.5271968500000064 -2.0678549000000004 -2.2528495500000005
Zr -0.8115024499999954 2.6977148 -1.4508514500000018
Zr -2.2240009499999935 0.08391470000000112 -2.3897513499999974
Cu 1.5897960500000003 1.8648147999999996 -0.7821502500000008
Zr 3.240400349999998 -0.04148479999999921 -0.7395515500000016
Cu 1.0193996500000075 0.5850153000000002 -2.6348495499999984
Cu -0.6271000499999992 -2.6977148 -0.14575194999999752
Cu 1.3683987500000079 -1.9418344999999988 1.6305504500000012
Cu -2.8071003499999954 2.0675153999999996 -0.18355174999999946
Cu 1.6949977499999953 0.7877150000000004 1.4483490499999974
Zr -3.240400349999998 -0.5917844999999993 0.23994824999999764
Cu -0.6320972500000046 2.286415100000001 1.4782486499999976
Zr -0.8552036499999964 -0.2597846999999991 2.6348495499999984
Zr -0.018800750000000477 -0.02018449999999916 -0.10955045000000041
