17

Zr 1.757549349999998 -1.5690002000000005 -2.7409515499999983
Zr -1.3220481500000076 -0.6704005999999998 -2.716949449999994
Cu 0.3529472499999926 1.0040006000000004 -1.846244849999998
Cu -2.050350150000007 -2.8664999 -1.1399459499999907
Cu 0.42734915000000484 -2.7561999000000013 -0.9420471500000005
Zr -1.4274482500000047 -2.4639998000000007 2.0588531499999974
Cu 1.0007515499999968 -2.150000600000001 1.3651504500000087
Cu 2.7585487499999957 -1.5397006000000006 0.22095485000000537
Cu -2.674152350000007 0.5421991000000004 2.069152850000002
Zr -2.256946550000002 1.643700599999998 -0.4784469499999986
Cu -2.8020515499999945 -0.6395998 -0.10134885000000082
Zr 2.8020515499999945 0.8538999000000009 -0.19024654999999058
Cu 0.17795184999999236 2.8664999 -0.830551149999998
Cu 0.01345445000000467 -0.20709999999999962 2.56974795
Cu 0.3492546499999989 1.9280995999999986 1.5464553500000093
Cu 2.363750450000005 -0.45890050000000127 2.7409515499999983
Zr -0.15175244999999649 -0.31180000000000074 0.16425325000000868
