15

Zr -0.9785004500000056 -1.7541465500000086 -2.9152489000000017
Cu 1.5543975499999974 -1.4281501500000005 -1.6737479999999962
Zr -0.462699949999994 -3.218349449999998 -0.3937491999999949
Cu -2.4534988499999955 -0.11214824999999706 -1.9276465999999957
Zr 0.7192001499999989 1.6704521499999956 -2.6399498000000037
Cu 0.6285018499999993 -0.276546450000005 2.7791481000000076
Cu -1.8729019500000064 -0.695743549999996 2.9152489000000017
Cu -0.1722031499999943 -2.439945150000007 1.980953200000009
Cu 2.6673965499999994 0.6757545500000006 -0.10914989999999847
Zr 2.6905975499999997 -2.200748449999999 0.7155494000000076
Cu -2.6905975499999997 1.3153495500000005 0.21605300000000938
Cu 1.7053985500000053 1.5499534499999967 1.6767539999999954
Cu -0.6287994499999954 1.731151649999994 2.849651299999998
Zr -0.30030065000000405 3.218349449999998 -0.19244769999999534
Zr -0.01390085000000596 -0.06004715000000971 0.09724810000000872
