14

Zr -0.7270507000000013 -2.8136501000000003 -1.8348998999999964
Cu -1.8321495000000017 -0.7005500999999992 -1.3407973999999996
Cu 0.0660495000000001 5.060000000156606e-05 -2.625
Zr -1.9892502000000025 1.9951505999999988 -1.9963989000000026
Cu 1.7481497999999984 -3.1274499999999996 -0.27849569999999346
Zr 2.8342495000000003 -0.6303500999999994 -1.041999699999991
Cu 2.0844496999999986 1.5756501999999983 -2.5965956999999946
Zr 2.141050299999998 1.953049700000001 0.10860449999999844
Zr -0.5417500000000022 -2.1334496000000005 1.444702200000009
Cu -2.8342495000000003 -1.0437498000000005 1.0399019000000038
Cu -0.18424990000000285 0.5771493999999997 2.4444045999999986
Zr 2.143249499999998 -1.0512505 2.625
Zr -0.5109501000000005 3.1274499999999996 1.1719055000000083
Cu 0.35224909999999987 -0.0293492999999998 -0.2970961999999986
