13

Cu 1.2298012000000043 -1.7250498999999984 1.6259596199999962
Cu -1.3017005999999967 -0.7394503999999991 2.9374597199999997
Zr -1.2651023999999964 -2.5249500000000005 0.8755361799999903
Cu 1.7486000000000033 -0.012247100000006839 2.879689919999997
Cu 0.41890330000000375 -2.601850500000001 -0.871564620000008
Zr -1.2402992000000026 1.7821484000000005 2.0182097199999944
Zr -1.6533011999999943 0.11034970000000399 -2.9374597199999997
Cu -2.3081016000000076 1.445852300000002 -0.8083627199999981
Cu -2.5965995999999976 -1.0671482000000019 -0.947065120000012
Cu 0.417903900000006 1.2960492000000023 -2.18475892
Cu 2.5965995999999976 -1.514551100000002 -0.7550637200000025
Cu 1.349300399999997 2.601850500000001 -0.42535952000000776
Zr 0.3754996999999989 -0.07354930000000692 -0.015363420000007011
