13

Cu 0.8498558500000004 -0.9078502499999992 -1.7531495499999998
Zr 0.3483560500000005 -2.9243488500000048 -0.13104965000000135
Zr -2.1473530499999995 -2.091348650000004 -2.19455005
Zr 2.78725605 -0.6010494500000014 -0.2352500500000012
Cu -1.7654270499999998 0.9662494499999958 -1.823249350000001
Zr 0.9705460500000003 1.9188518499999994 -2.1454501500000003
Cu -0.49528404999999975 2.9243488500000048 -0.29344985
Cu 1.6452761500000004 2.0289516499999998 0.8337501500000002
Cu -2.78725605 -0.6206493500000043 -0.0992494500000003
Zr -1.6992950499999997 -2.2334499500000042 1.6072497499999994
Zr 0.7320458500000004 -0.24965094999999948 2.19455005
Zr -2.2517065499999998 1.8815517499999963 1.2198500499999998
Cu -0.3679840499999998 -0.09665105000000196 -0.0918498500000009
