13

Cu -0.9421996500000063 -1.0477495000000001 -1.9906491499999994
Zr -3.3350982500000015 -0.8520498000000014 -0.662749250000001
Cu -1.5601043500000031 1.2710504999999994 -2.6360502500000003
Zr -2.4617996500000032 1.4619494 0.5094499500000005
Zr 1.9953003499999937 0.5002489000000008 -1.2805490500000012
Cu 0.29360205000000406 2.447150200000001 -0.5261487500000008
Zr 1.2624969499999992 -2.447150200000001 0.12275035000000045
Cu -1.2044982500000003 -1.8853501999999995 1.2190505499999986
Cu -0.5960998500000017 0.6983499999999996 2.6360502500000003
Cu 0.8755950500000012 -1.2498503000000003 2.3017511499999976
Zr 3.3350982500000015 -0.2595510000000001 1.1140508499999981
Zr 1.2573013499999917 2.2031487999999992 1.6973505499999995
Cu 0.04470064999999579 -0.21155069999999832 0.05605034999999958
