14

Cu 0.50664905 1.3884496499999965 -2.7864503999999997
Cu -2.1014518499999966 0.5129499499999977 -2.4621496
Cu -2.4346504499999995 -0.9060487499999983 -0.209750200000002
Zr -0.9179496500000042 -2.9998502499999997 0.09385010000000094
Cu -2.050250949999999 -1.6489496500000005 1.861948899999998
Cu 2.4346504499999995 0.7495488500000018 -1.2804499000000007
Zr -0.5892524499999965 -2.057049749999999 -2.5384492000000023
Cu 1.9182548500000038 -1.9563493499999982 -0.2926493000000008
Cu 1.9079475499999958 1.504050249999997 0.8774499999999996
Zr -2.151546450000005 2.3760519500000026 0.09635069999999857
Zr -0.7583503500000077 1.2207517500000034 2.7864503999999997
Cu 0.9819526500000038 2.9998502499999997 -0.6362504999999992
Zr 1.094249749999996 -1.8369493499999994 2.2916497999999983
Zr 0.16865164999999394 -0.2633485499999981 -0.1895495000000018
