13

Cu -0.507000050000002 -2.1220512999999954 -1.812400799999999
Zr -1.28789905 0.5378493999999989 -2.6424999000000007
Zr 1.079700350000003 1.2281493999999995 -2.2455004999999986
Zr -2.6296997500000003 -1.0466499999999996 1.0797005000000013
Cu 1.4766005500000006 -0.9946517999999998 1.9834995000000006
Cu 0.6765021499999975 -2.291351299999995 0.1133002999999988
Cu -2.251899850000001 1.306148499999999 -0.1226005999999984
Zr -0.626098749999997 0.6770477000000028 2.6424999000000007
Cu -0.18230065000000195 2.6739502 0.6945991000000014
Cu 2.6296997500000003 -0.975849199999999 -1.3070011000000008
Zr 2.3324012500000038 1.1209488000000007 1.188200000000002
Zr -0.5043984499999965 -2.6739502 2.433299999999999
Cu -0.041500149999997404 -0.008548799999999801 0.061199200000000786
