14

Cu -0.047534214999991775 -1.9603985999999995 -2.114597349999997
Zr -0.967028814999999 0.279801400000002 -3.0703010499999976
Cu 1.4858672850000048 -2.9492998000000004 -0.46989824999999996
Cu 2.089541915000005 -0.7685993999999976 -1.0345954499999976
Cu 0.9333693849999989 1.2822009000000012 -1.7703971499999938
Zr 1.3964660850000072 -1.1150998999999988 3.0703010499999976
Cu 2.4629318150000046 0.9452009999999991 1.9482002499999993
Cu -0.9754288149999937 -3.088000299999999 1.6019020500000067
Cu -2.18183441499999 -0.9451990000000006 2.1915016500000064
Cu -2.4629318149999975 -1.3376988999999977 -0.4655952499999927
Zr -1.9524338149999991 1.7055007 -0.47150034999999946
Cu -0.9088318149999921 0.9952002000000011 1.8979988500000076
Cu -0.02893371500000086 3.088000299999999 -0.2793005500000021
Zr -0.010531614999997885 -0.5695999999999994 0.18709945000000516
