15

Zr -1.1679497999999953 -1.591299949999999 -2.654699400000002
Cu -2.4919510000000002 -1.1729993500000004 -0.012800199999997375
Cu 2.1768493000000007 -3.14109995 -0.7296008000000036
Cu 1.6332511000000025 -1.4801997499999997 -2.297498700000002
Cu -2.0220489999999955 0.7017002500000009 -1.1794987
Zr 0.0894508000000016 1.3858003499999993 -3.065401099999999
Zr 0.061248700000000156 3.14109995 -0.5192013000000024
Zr -0.15174869999999885 -3.0612001500000003 -0.18670080000000056
Zr -0.5957489999999979 -1.9381999500000004 2.6765994999999982
Cu 2.029651600000001 0.7067003500000011 -1.0133990999999973
Cu 2.4919510000000002 -0.8963994499999997 0.9410992
Zr 1.5390510000000006 0.09590055000000053 3.065401099999999
Cu -1.2290497999999985 0.9095001500000004 1.0500010999999994
Cu 1.5917510000000021 1.9566001500000008 0.9187983999999965
Cu 0.13265220000000255 -0.5193995500000002 -0.07710080000000019
