16

Zr -2.1074008999999982 0.38335030000000003 2.3823802200000017
Cu -1.0771999 -1.8137513000000034 0.7333502199999984
Cu 1.1207008000000016 -1.8797493000000038 2.429340119999999
Cu 2.002199300000001 1.7820511000000003 2.2138302199999984
Cu 0.3523998000000006 0.4193496000000003 3.297470319999995
Cu 2.6641007000000023 -0.9526481000000011 1.2084102199999975
Cu -2.4330996999999996 2.032951299999997 0.09953277999998988
Zr -0.20790099999999967 2.8397484000000013 1.0302500199999969
Cu -1.1233997000000002 -2.1135483000000015 -1.6421740199999988
Cu 0.8381004000000019 -2.883449500000001 0.3733288800000025
Cu -2.6814003 -0.591449800000003 -0.9973681200000044
Cu -0.016799899999998757 1.1005517000000005 -3.297470320000002
Zr 1.8185005000000025 -1.5019493000000033 -1.6433718199999987
Cu 2.6814003 0.8803481999999967 -1.161369620000002
Cu -0.13129999999999953 2.883449500000001 -1.4838717200000104
Zr -0.030200899999996977 0.2787512999999997 -0.25647002000000896
