15

Cu -1.603849450000002 0.3028010999999964 -2.6051006500000007
Zr -0.22264675000000622 -1.9386997000000008 -2.76010035
Cu 2.422548249999995 -0.37209890000000456 -2.00640005
Cu 3.089151349999998 -1.0338993000000016 0.15520004999999948
Cu -2.4080486500000013 -1.7189999 -1.0104007500000005
Cu -0.22195244999999986 2.555799499999999 -2.3095006500000004
Cu -1.8137493499999984 1.8963984999999965 -0.3489998500000002
Cu 1.879747350000006 2.461698499999997 -1.2680006500000012
Cu 0.6094531499999967 -2.6918010999999993 0.12849994999999836
Cu -0.34895135000000366 -1.1648005999999995 2.2393999499999975
Cu -3.089151349999998 -0.44360160000000093 0.9446992499999993
Cu 0.41765024999999767 2.6918010999999993 0.7679996499999984
Zr -1.3932514499999975 1.2661990999999944 2.76010035
Zr 1.828248950000006 0.9281979000000007 2.092398649999998
Zr 0.32985114999999965 0.4034976999999955 -0.1402006500000006
