12

Cu -1.409502050000004 -0.8569508000000017 2.1776999500000045
Zr 1.4622974499999977 0.7045498000000006 2.8213996500000036
Cu -1.746900550000003 1.8667506999999954 1.0399970499999966
Zr 1.240598649999999 2.4970492999999987 -2.2350960499999957
Zr -2.7815990500000005 -0.9110507999999999 -0.15769584999999608
Zr 1.026700949999995 -2.957349800000001 -0.09599694999999997
Cu -0.5338993500000022 -1.4293499 -1.1425972500000086
Cu 2.7815990500000005 0.5220508000000006 -0.11670304999999814
Cu 0.20759775000000147 -0.09835239999999779 -2.8213996500000036
Cu -1.297899250000004 1.508749 -1.4473000499999955
Cu 1.0179996499999966 2.957349800000001 0.9433021499999938
Zr 0.10589785000000163 0.4746493999999952 0.3635977499999967
