14

Cu 0.5272998999999992 -2.457122780000006 1.6806497499999988
Zr -1.0576991999999983 2.2720732800000008 -0.11645025000000153
Cu 1.3017006000000002 2.457122779999999 -1.0114507499999998
Cu 1.3913001999999999 1.4685630799999956 1.1806497499999988
Cu -1.3658007999999988 0.047563079999996205 -1.620348850000001
Zr -3.203199399999999 0.1816830799999991 -0.2031507500000007
Cu -0.36910059999999945 0.9525633800000008 2.328549449999999
Zr 0.7383002999999988 -0.41695692000000406 -2.607949249999999
Zr 3.203199399999999 0.4821228799999986 -1.173649750000001
Cu 1.5282993000000005 -2.10781858 -0.8631505500000021
Cu -0.896200099999998 -1.7808768200000031 -0.36065005000000205
Zr -1.9048996000000002 -1.44030712 2.607949249999999
Zr 2.7189999 -1.0749969200000038 1.5017501500000012
Cu 0.4495010999999991 -0.12209692000000416 0.21304995000000027
