15

Zr 0.1744866150000064 -2.3307513499999963 -1.9398994499999915
Cu -1.5359131149999996 -2.6939487500000006 -0.03519825000000054
Cu -0.29990438499999783 0.23264885000000035 -2.6733970499999984
Zr 1.9830956150000034 1.9255504499999994 -1.5441016499999947
Cu 2.015965715000007 -0.4673480500000018 -2.391101849999991
Cu -1.5929200150000042 2.3933506499999986 -0.10210034999999351
Zr -2.8173157150000065 -0.546251250000001 -0.8113975499999881
Zr 0.698520815000002 -2.416849150000001 1.5860023500000082
Cu -1.994516015000002 0.8808498500000006 1.8180962500000035
Cu -1.8878189149999969 -1.54725075 2.3904991500000037
Cu 0.8926776150000038 2.6939487500000006 0.9397010500000036
Cu 0.13449961500000285 -0.060750950000002746 2.6733970499999984
Cu 2.602605715000003 -1.909048049999999 -0.12420275000000203
Zr 2.8173157150000065 1.091749250000003 1.3432960499999993
Zr -0.1592413849999943 0.28574945000000085 -0.008998849999990455
