15

Zr -0.6515961000000061 -2.841648100000004 1.5997486000000087
Cu -1.9621963000000022 -0.29214860000000087 -1.8500499999999995
Cu -0.8324965999999989 -2.154647800000003 -0.9836483000000023
Zr 0.3616028 0.0002480000000026905 -2.783349999999995
Cu 1.9904022999999995 -1.6250496000000076 -1.2862451999999998
Zr 2.662399300000004 -0.9409521999999946 1.783754400000003
Cu 2.6780013999999994 0.5205498000000013 -0.6186503999999964
Cu -1.6697997999999927 1.9755515999999922 -1.522245399999992
Cu -2.6780013999999994 2.1136513999999984 0.45044900000000254
Cu 1.2403029999999973 2.341747299999998 -0.7617472999999997
Zr -0.1792983999999933 2.841648100000004 1.7375508000000046
Zr -2.663696299999998 -0.6808510000000005 1.7136480000000027
Cu -0.3133011000000039 -0.1394462000000054 2.783349999999995
Cu 2.310302699999994 1.8797493000000038 1.6303500999999976
Zr -0.28849789999999587 0.0340537999999988 0.07585339999999618
