13

Cu 1.2412703 0.7116002999999989 -2.332298299999998
Cu 0.9690601999999995 -2.0036001000000017 -1.9806976000000063
Cu -0.15259999999999962 -2.435099599999999 0.06530000000000058
Zr -2.82949 -1.0789995000000001 -0.4349975000000015
Cu -1.2182801000000003 -0.291800499999999 -2.4076003999999998
Cu -2.1113698000000003 1.7344999999999988 -0.9647979000000007
Cu 0.22155979999999964 2.435099599999999 -0.4731978999999953
Cu -1.9596799000000003 0.8149995999999984 1.5837021000000036
Zr 0.4499303999999995 1.6906003999999992 2.4076003999999998
Zr 2.3730899999999995 0.9115991999999995 0.05560310000000612
Zr 0.7278301999999996 -1.3716001000000002 2.3461
Cu 2.82949 -1.7839003000000009 0.0015029999999924826
Cu -0.18845009999999984 -0.08879940000000097 -0.01869959999999793
