14

Cu 0.9541015000000002 -2.840398799999999 -0.9034998500000002
Cu -1.4311981999999972 -1.690399199999998 -0.32625985000000046
Zr -0.17089849999999984 -0.9715995999999976 -2.61993005
Cu 0.9196014000000048 1.8944987999999974 -1.42748995
Cu 2.043399800000003 -0.6644991999999981 -1.15103985
Cu 1.155502300000002 2.1173991999999977 0.7036999499999999
Cu -2.2270011999999966 0.8364009999999986 -1.4299499500000001
Cu -2.3148994000000016 0.6806011000000005 0.7943299499999998
Zr -1.6746978999999982 2.840398799999999 -0.3567602499999998
Zr -2.155899099999999 -1.5097999999999985 2.46394045
Zr -0.6555977000000013 1.357702200000002 2.61993005
Cu 2.3148994000000016 0.052499800000003205 1.3983800499999992
Cu 0.6814004000000011 -2.0868988 1.71131015
Cu -0.09769829999999757 0.21500210000000308 0.1466100499999996
