13

Zr -1.0210504999999994 0.43409725000000066 -2.5799999499999995
Cu -1.8598508999999996 -1.7217025500000034 -0.3866996500000024
Cu 0.3505488000000003 -1.5480003500000024 -1.1785011500000007
Cu 1.8187493999999997 0.5492972500000022 -1.406900349999999
Cu 2.1473494000000013 -0.4901999499999974 1.0112991499999975
Cu -0.6476506000000004 2.325798050000003 -0.564100250000001
Zr 2.1845502999999997 2.081497149999997 0.8929996499999984
Zr -1.7189512000000011 -1.5136031500000016 2.3542995499999986
Cu 0.015749900000001205 0.530300050000001 2.5799999499999995
Zr 0.5881489999999996 -2.744899750000002 1.877498649999998
Cu -2.1845502999999997 0.7419967499999984 0.9998988499999992
Cu 0.007449100000000541 2.744899750000002 2.088899549999999
Cu 0.17494869999999985 0.06629945000000248 0.2260990500000002
