14

Zr -0.70650105 -0.9461498499999994 -1.9796504000000006
Cu 2.6357994500000004 1.4994506500000018 -1.4373492999999975
Cu 1.9596978500000048 -1.5210494499999978 -0.07914919999999981
Cu 1.007000050000002 0.7158508500000007 -3.234251000000004
Cu -0.10590355000000073 -3.076950049999999 0.4833508000000002
Cu -0.13550174999999598 2.36964985 -1.4680500000000016
Zr -2.8460998500000017 0.8307513500000017 -0.8870486999999976
Cu -2.149501749999999 -1.7861499500000004 0.8571491999999985
Zr 0.17819975000000454 -1.214550049999998 2.098547
Zr -2.0198021499999967 0.7650509500000009 1.6752530000000014
Zr 1.6696968500000011 3.076950049999999 0.6839504999999981
Cu 0.5530967500000017 1.6931514500000002 3.234251000000004
Zr 2.8460998500000017 0.5792503500000006 1.739553500000003
Cu 0.5787963500000046 0.4398498499999999 0.06955149999999932
