15

Cu 0.16785050000000012 -0.00450140000000232 -2.77019885
Cu -2.0722504000000015 1.0989989999999992 -2.6041984499999984
Zr 0.23525240000000025 2.6987000000000023 -2.723300949999995
Zr -2.3199501 -1.3697014000000038 -1.3446006499999896
Cu -0.7231482999999983 -2.6987000000000023 0.32619855000000086
Zr -2.9529495000000026 -0.06090160000000111 1.0174979500000063
Cu 0.31534959999999757 -2.042301199999997 -1.51720044999999
Zr 1.7225494999999995 -2.143501200000003 0.8442040500000019
Zr 2.6257515 0.21929929999999587 -1.6393013499999967
Cu -1.2846489000000005 2.6534995999999964 -0.500499750000003
Cu 2.0795517000000032 0.5984993000000003 1.1447028500000016
Cu 2.9529495000000026 2.3694992 -0.41150284999999087
Zr -0.2415503000000001 -0.5139008000000018 2.77019885
Cu -0.6276474000000007 1.8400001999999986 1.5123023499999988
Cu -0.2361487000000011 0.518600499999998 -0.3575019499999996
