12

Cu -0.4442951500000003 -1.2398495999999994 -1.864898750000009
Cu 1.99359485 -1.6592497999999996 -2.411300650000001
Zr -0.70219495 1.374049600000001 -2.2041015500000043
Cu 2.2911746499999994 0.7598500000000001 -2.220199649999998
Cu 0.22696464999999932 -2.3180499 -0.0398940500000009
Cu -0.49516515000000005 -0.6887498000000001 2.1831054499999993
Zr -2.6074350500000003 -0.2190498999999999 0.4092025499999892
Cu 1.0553652500000004 2.3180499 -0.15390005000000428
Cu -1.70738535 1.9809509000000016 1.278503349999994
Zr 2.6074350500000003 -0.4379497000000008 0.1267013499999905
Zr 1.404644649999999 1.9133505000000017 2.411300650000001
Cu -0.010845050000000356 0.16255040000000065 0.06240074999999479
