15

Cu 0.44240184999999954 -2.8308505499999974 0.42114020000000085
Cu 0.40719985000000136 -2.703752650000002 -2.063660099999999
Cu -1.9318008499999983 -1.6202526500000012 1.3153405000000005
Zr -1.7826996500000014 -0.7904529499999988 -2.458559499999999
Cu 1.6273994500000022 1.5504473500000024 -2.3192601
Cu 1.0469016499999988 -0.528650350000003 -2.7846398
Cu 2.6576995500000002 -2.2174511499999987 -1.1998600999999995
Cu 2.5925025500000025 -0.2050495500000018 0.3350407000000013
Cu -2.6576995500000002 0.4793490499999997 -0.04375979999999924
Zr 1.6287002499999979 2.8308505499999974 0.08383990000000008
Zr -1.766998349999998 2.6618479499999985 -0.34645990000000015
Zr 0.9736022500000026 -1.4364529499999996 2.7846398
Cu -1.265800549999998 0.3763484499999983 2.3462405000000013
Cu 1.916099550000002 1.0977496500000008 2.3729405000000012
Zr 0.23880004999999827 -0.4092503499999971 -0.18205979999999844
