14

Cu -2.1592988999999996 0.5722493999999987 -1.73199464999999
Zr -0.33120059999999896 -0.8702498000000016 -2.564498950000001
Cu -0.33949949999999873 1.8108512 -1.908195550000002
Cu -2.600499199999998 -1.1439503999999996 -0.5963974499999978
Cu 0.47819990000000345 -2.2894506000000003 -0.1361007499999971
Zr 1.7880011000000025 -0.5871496000000018 1.747703549999997
Cu -1.1841000999999984 -1.9933500000000013 1.6226043500000031
Cu 2.6717005 -2.0322504000000006 -0.958496150000002
Cu -2.6717005 0.5055494000000014 1.1576003500000098
Cu -0.44410039999999995 1.3528508999999982 2.564498950000001
Cu -0.742699499999997 2.2894506000000003 0.5109023500000092
Zr 2.3450003000000024 0.5180501999999994 -2.2309952499999923
Cu 1.3851995000000024 1.653750399999998 -0.15959934999999348
Cu -0.3094988000000001 -0.060049999999998604 -0.041900650000002315
