17

Cu 0.05140020000000067 -2.867650000000001 -1.8149985500000057
Zr -3.1530999999999993 0.9593476999999986 -0.41229625000000425
Cu -1.6627997999999993 -0.32274909999999934 -3.2037010499999994
Cu -2.3022698999999998 -1.3262510000000027 -1.3879966500000123
Cu 0.9131003000000009 -1.0209513000000001 -3.07519915000001
Cu 0.5248002999999999 0.9884500999999979 -2.36449815000001
Cu -1.1337994999999994 2.5409478999999955 -1.4925956500000055
Zr 2.8770008000000002 0.23935039999999574 -1.4639014500000016
Cu 0.5317000999999992 -1.3641500999999998 3.1635017499999876
Cu -1.0735997999999993 0.7493486000000011 3.2037010499999994
Cu -1.729419599999999 -1.024651500000001 1.6602974499999945
Zr 1.4667005000000009 -2.3973513000000004 0.45769895000000105
Cu -1.6546791999999995 2.5729493999999953 1.2357979499999985
Cu 3.1530999999999993 -0.1224507999999993 1.1701011500000007
Cu 1.2569007999999995 2.867650000000001 -0.8419990500000054
Cu 0.5062007999999993 2.237950399999999 1.4613991499999983
Zr -0.042399399999999865 -0.02435209999999799 0.053501149999995334
