13

Cu 1.198204050000001 -2.4068508500000014 0.06794930000000221
Cu -1.0412979500000006 -2.020549850000002 -0.8268489999999957
Zr -1.2132949500000052 0.7719478500000001 -2.755651499999999
Zr -2.5662002499999943 -0.19204905000000494 0.7997494000000032
Cu -1.4940948499999962 2.0195483499999973 -0.2605494999999962
Cu 1.8271026500000005 -0.26325034999999986 -1.3319491999999968
Cu 0.5587005499999975 2.2861499499999987 -1.7041491999999963
Cu 2.5662002499999943 -0.09325225000000259 1.136251399999999
Cu -1.0444946500000043 1.802549349999996 2.2826519000000047
Zr 1.3426056499999959 2.4068508500000014 0.7845516000000003
Cu 0.6735000500000012 0.3503513500000004 2.755651499999999
Zr 0.06670375000000206 -2.0572510500000014 2.3043498999999983
Cu 0.17840574999999603 -0.03434945000000411 0.0714511999999985
