12

Cu -2.1639519499999977 -1.5599003000000007 -0.21540025000000007
Cu -1.795147049999997 -0.4710006999999994 -2.6484999499999997
Cu 0.15244674999999575 -2.326801399999999 -1.0875001500000003
Cu -0.894947049999999 -2.7122002 1.6009001499999993
Zr 1.7931480499999992 -1.3184014000000008 2.1289992499999997
Zr 0.40085215000000574 0.8050994000000014 -2.631619950000001
Cu 2.1933479500000033 -0.851801 -0.5486999499999996
Zr -2.058147450000007 1.8041 -0.6656003500000001
Cu 0.6251487499999939 2.7122002 -0.09800004999999956
Zr 0.2798499499999991 1.3873996000000002 2.6484999499999997
Cu -2.1933479500000033 0.11129949999999944 1.47459935
Cu -0.2551536499999969 -0.010900600000001148 -0.38390024999999994
