12

Cu -0.6845990000000022 -0.9483985999999973 -2.6164492999999993
Zr -2.3640003000000007 0.28139879999999806 -1.1986485000000044
Cu -1.4960994999999997 -2.224201200000003 0.6441516999999948
Zr 1.6812000000000005 -2.354801199999997 0.47595029999999383
Zr 2.3640003000000007 -0.9183998000000031 -1.3336506000000057
Cu 0.5708999000000006 0.9673003999999992 -2.387048700000001
Zr 2.268701499999999 0.6097984000000025 1.2946491000000009
Zr -0.6620999000000012 2.354801199999997 -0.2730503000000013
Zr -2.317298900000001 0.5270003999999986 1.8190516999999957
Cu 0.22510139999999978 -0.8152007999999995 2.6164492999999993
Cu 0.4535006999999993 1.9715995999999976 2.3575497
Cu -0.021598799999999585 -0.07339859999999732 -0.1376476000000011
