14

Cu -2.6190004499999997 1.3742980500000002 -1.3066501499999994
Zr -0.08020115000000239 0.09249874999999719 -2.889749550000001
Zr 2.4259996499999996 1.3799972499999953 -2.4369526499999985
Cu -0.4034013500000011 -2.1479988500000005 -1.7864513499999966
Cu -0.42030045000000094 -3.2275009499999996 0.80945015
Zr 2.585698149999997 -2.3340988500000037 -0.6326504499999963
Zr -2.20420165 -1.3356018500000033 0.48884775000000147
Cu -2.1592016500000017 0.15509794999999116 2.889749550000001
Zr 0.301299049999999 -1.1304016500000031 2.5956477500000013
Cu 1.3051004499999959 2.0521011499999915 1.2524510500000012
Cu 2.6190004499999997 -0.21260075 0.7370471499999987
Cu -1.4194002500000007 2.09980015 0.7321490500000003
Zr 0.15049834999999767 3.2275009499999996 -1.0169506499999947
Cu 0.005799249999997258 0.19239814999999538 0.07884784999999894
