16

Cu -1.7206497000000027 -2.5437487999999995 -1.9925479999999958
Zr 1.3427506000000022 -2.3083476999999952 -2.8302479
Zr -0.9233473999999973 -0.24974999999999525 -3.084749200000001
Cu 2.2215500000000006 0.3310490000000037 -2.722947999999999
Cu 2.413650599999997 -1.502550099999997 -0.3111476999999958
Zr -3.2602501000000004 -0.38125039999999544 -1.1062487999999995
Cu -1.338546700000002 2.1436519999999994 -0.8503512999999963
Cu 0.6973496000000026 3.0501498999999974 0.8925495000000048
Cu 0.6862526000000031 1.6264514999999982 -2.4236506999999996
Cu 0.11175159999999806 -3.0501498999999974 0.09805110000000283
Zr -0.15364840000000157 -0.834150300000001 3.084749200000001
Cu -2.0530471000000006 -0.3450488999999983 1.5181521999999994
Zr 3.2602501000000004 0.927152600000003 0.3361492999999989
Cu 2.304351799999999 -1.354547499999999 1.9625492000000015
Cu -1.3195495000000008 2.0308513999999995 2.0263500000000043
Zr 0.07425309999999996 -0.14184759999999486 -0.48705099999999746
