12

Cu 1.168451349999998 -2.270749999999996 0.01159965000000085
Cu -2.0921497499999973 -0.28244969999999725 0.16120055000000022
Zr -1.7019481499999998 -2.6111506999999996 -0.6503992499999995
Zr -0.052049650000000725 -1.129148499999996 -2.5218000499999995
Cu -1.9775485500000016 1.4026509000000011 -1.3452005500000013
Zr 1.5851497499999994 1.2524510000000042 -2.1643991500000013
Zr -0.8243503500000031 -0.9299488000000018 2.3217001500000016
Cu 1.768648149999997 2.5143489999999993 0.12300014999999931
Cu 0.7560482499999992 1.7959499 2.5218000499999995
Zr 2.0921497499999973 -0.06725119999999762 1.2657003499999995
Zr -1.0591487499999985 2.6111506999999996 0.8846998500000005
Cu 0.10315134999999742 0.40934950000000114 -0.03449914999999848
