12

Cu -2.6264146 -1.6077994999999987 -1.4823897499999998
Zr -0.025215599999999894 -1.9870987000000042 -2.0616197499999998
Zr -1.7970167 -2.5531998000000016 1.361630050000001
Zr -2.0068745999999997 1.1044006999999993 -2.0644898499999997
Cu 0.6234844000000002 1.875099200000001 -1.7133297499999993
Cu 2.0103944 -1.9148978999999997 0.35660035000000034
Cu -2.1493385999999997 -0.03300090000000466 0.8259807499999998
Cu 2.3980244 -0.21770099999999815 -1.5444797499999994
Zr 2.6264146 1.0210991000000007 0.884729950000001
Zr -1.2094965999999998 2.5531998000000016 0.9344602500000012
Zr 0.5091143000000002 -0.47729869999999863 2.0644898499999997
Cu -0.2050654999999999 0.11940010000000001 -0.5624298499999996
