14

Cu -1.0546493000000048 -1.4895992500000048 -2.7291507500000023
Zr -2.0438499000000014 -1.5553989500000043 0.8656520500000013
Zr 0.4346503999999989 -2.7110004500000002 2.7291507500000023
Cu 1.5922507999999986 -0.8099994499999994 -1.5659504500000025
Cu 0.04944999999999666 -2.344900150000001 -0.6763477499999979
Zr 2.370151499999995 -1.1980991500000044 1.1836490499999996
Cu -1.672149600000001 0.6764011499999967 -1.438848550000003
Cu -2.7140503000000002 1.7385997499999988 0.9182491500000012
Cu 2.7140503000000002 1.267900449999999 -0.27244755000000254
Zr 0.4607505999999937 1.869299049999995 -1.4168491499999973
Cu 2.4751510999999944 1.8594990499999966 1.9466495499999965
Cu 0.31134799999999885 2.7110004500000002 1.5591525500000003
Cu -1.0296516000000047 0.5337009499999965 2.211851150000001
Cu 0.19544979999999512 -0.12360195000000118 0.42564974999999805
