14

Cu 0.016502349999996113 0.05850024999999803 3.1013510200000027
Zr 1.3672027500000041 1.9253005499999993 1.449849879999995
Zr -1.3560027500000018 2.104900350000001 -2.79484772
Cu -1.5991973499999972 -1.77210045 1.1777474800000007
Cu -0.4907989499999985 -2.18779945 -1.0307486200000042
Zr -0.8950042499999995 -1.2709999500000002 -3.1013510200000027
Cu 1.6132965500000012 -1.4867000499999996 -1.812547919999993
Zr 1.7173996500000044 -1.7141990500000013 1.220449280000004
Zr -1.6915969500000045 0.9176006500000007 1.187650479999995
Cu -2.226997350000005 0.25130074999999863 -1.0530493199999924
Cu 0.059600849999995376 2.18779945 -0.7019522200000026
Cu 2.226997350000005 0.8521995499999981 -1.0014517199999986
Cu 0.9345016500000014 0.8537997500000003 -2.8094503200000034
Cu 0.26059725000000356 0.017299649999998223 -0.49405112000000173
