15

Cu -2.495651250000005 -0.7454490500000013 -2.4750519499999974
Cu 1.6559486499999956 1.5131492500000014 -2.1319504500000015
Cu -0.5058479499999997 1.0637512499999993 -2.742050250000002
Zr 2.7491493499999997 -0.8315505499999993 -1.8018494500000024
Zr -2.2545509499999987 1.7798500500000038 -0.9661484500000022
Zr -2.7491493499999997 -1.2260513500000023 0.1352500499999998
Cu -1.5438499499999985 1.0611495499999997 1.521049449999996
Cu -0.1684493499999995 -3.03345105 0.3972510499999977
Zr -0.20085145000000537 -1.579547950000002 -1.6242485500000008
Cu 1.827350649999996 -2.058151249999998 0.8760489500000013
Cu -0.10245134999999905 -0.9173507500000007 1.7754516499999973
Cu 2.7123489499999955 0.7083511500000021 0.2813491500000005
Zr 1.2444496499999964 1.3620490499999995 2.742050250000002
Zr 0.3308487499999977 3.03345105 0.3199500499999992
Cu 0.16664884999999785 0.44895175000000265 -0.2746505500000005
