11

Zr 0.17599955000000023 -2.033948950000001 -2.332599700000003
Zr -1.02209955 -2.460149750000001 0.47400280000000095
Cu -2.2757998499999985 0.07925035000000058 -1.9688988000000052
Cu -1.1029005499999975 -0.40964894999999935 2.3362999
Zr -2.4800005499999997 1.0086498499999994 0.9405020999999962
Zr 2.4800005499999997 -1.2561493499999994 -0.5620995000000022
Cu 0.6356000500000007 0.9682502499999988 -2.3362999
Cu -0.27279954999999845 2.460149750000001 -0.3118973000000054
Zr 1.8655995500000024 1.0340499500000018 1.6696013999999977
Cu 2.414099750000002 1.2837505499999988 -0.8607979000000014
Cu -0.11499884999999921 0.12755014999999936 -0.11979680000000315
