16

Zr -2.3856467499999994 -2.668600049999995 0.1487908200000021
Cu 0.593448649999992 -2.82439995 -0.6995692799999986
Cu 0.44375224999999574 -2.63570215 1.5154810200000028
Cu -2.455753350000002 -0.41029924999999423 1.3035407200000009
Cu 2.455753350000002 -1.7926998499999982 0.40096092000000283
Zr 2.054851550000002 -0.475198749999997 -2.88683082
Cu -2.3304481500000023 0.449800450000005 -1.495889179999999
Cu -2.3522529500000005 1.8942012500000018 0.8697310200000032
Cu -0.5149498500000007 2.82439995 -1.061159179999997
Cu 0.30164715000000086 2.1597995500000025 2.534570719999998
Cu 2.3586540499999913 1.8522014500000026 -1.3721692800000014
Cu 2.2076530499999976 0.9190997500000009 1.326060720000001
Zr 0.1739539499999907 -0.4158992499999954 2.88683082
Cu -0.7339515500000076 -1.55000115 -2.107129619999995
Cu -0.09045035000000468 1.5090007500000056 -2.7287269199999997
Zr 0.13805004999999682 -0.17260174999999833 -0.0693693799999977
