15

Zr 0.6606507000000006 -0.20599984999999954 -3.0503502000000005
Cu -1.3221497999999992 -0.9989400499999999 -2.0923499999999997
Zr 2.9224495999999993 0.2311501500000004 -1.452949499999999
Zr -2.9224495999999993 -0.6290798500000001 0.004549000000000802
Cu 0.9135499999999999 -1.7404399499999998 -0.12224959999999996
Zr -0.2196498 -2.0384898499999995 2.2288494000000014
Cu -0.9722495000000011 -2.8709697499999995 -0.3733500999999997
Cu 0.02325100000000102 0.33500005000000055 3.0503502000000005
Cu -2.2919497999999985 0.7827501500000009 1.872348800000001
Zr 2.4968495000000024 -0.2559900499999994 1.6389503999999988
Cu 0.7025513999999999 2.07686995 -1.6114502000000002
Zr -1.7972492999999998 2.31779005 -1.2921505000000018
Cu -1.0687498 2.6244697500000003 1.578649500000001
Zr 1.6644502 2.8709697499999995 1.1311493000000006
Cu -0.13464879999999813 0.33188005000000054 0.34924900000000036
