11

Zr -0.4008998999999953 2.22942398 -0.04510020000000026
Zr -0.47590059999999923 0.42721368000000126 -2.8014002
Cu -2.2165011999999997 -0.48800612000000143 0.04539970000000082
Zr 2.204099799999998 1.1459836800000005 -1.1140001999999996
Cu 1.9703999000000003 2.409453880000001 1.544699699999999
Zr 1.9839993000000042 -0.4255261200000007 2.604399700000002
Cu -0.16959950000000035 -2.409453880000001 0.021498700000002202
Zr 2.2165011999999997 -2.284949780000005 -0.5791006000000003
Cu -0.8672999999999966 -0.7889862199999982 1.852000199999999
Zr -0.3022975999999993 2.1874437800000024 2.8014002
Cu 0.1942005999999985 -0.13478612000000112 0.0804986999999997
