14

Cu -0.13450055000000027 -1.2769508000000016 -2.6619987499999986
Zr 0.41839984999999835 -3.042751299999999 -0.16869734999999864
Cu -1.8332004500000014 -0.4688492000000011 0.4320030500000094
Zr -2.4722995500000007 -1.3327522000000016 -1.9729995500000008
Cu -1.8696003500000007 1.625949900000002 -1.3440970499999985
Zr 2.4081001499999974 -1.4026489000000026 -2.0365981499999997
Zr 0.7644996499999994 1.2513503999999998 -2.4169005499999976
Cu 2.2709999499999984 -1.1089514999999963 0.5926018499999977
Zr 0.09829904999999961 3.042751299999999 -0.07549654999999333
Cu 2.4312992500000004 1.3434487000000033 -0.33209605000000053
Cu 2.4722995500000007 1.6973496000000026 1.8745003500000088
Zr -0.8764000499999991 1.626648000000003 2.3523979500000003
Zr 0.38529964999999855 -1.2670516999999961 2.6619987499999986
Cu 0.25639914999999824 -0.09675209999999623 -0.2989005499999955
