15

Cu -0.42431544999999904 -0.4222001000000013 -2.6900501499999976
Cu 1.0170850500000013 -2.1778002 -1.393850350000001
Cu -3.076105149999999 0.6748991000000011 -1.5346507499999973
Cu 1.7581844500000008 0.6862001000000006 -2.2904529500000024
Cu -0.4960155500000001 2.596400299999999 -1.5340519499999985
Zr -2.3648748499999988 -1.8310002999999995 -1.5709513500000014
Zr -1.3688154499999987 -2.596400299999999 1.3715496499999986
Cu 2.0402850500000005 -2.1521006000000007 0.8512477499999989
Cu -3.36818505 -0.7802000000000007 0.8139476500000029
Cu 0.7480850500000011 0.2020005999999981 2.6900501499999976
Zr -1.6544151499999993 2.1288996000000004 0.8260479500000031
Cu -1.2146148499999994 0.1535997000000009 2.558847450000002
Cu 1.2676849500000005 2.0617990000000006 0.22934914999999734
Zr 3.36818505 -0.06890010000000046 -0.4333515499999976
Zr 0.008585049999999761 -0.16310029999999998 -0.056150449999996965
