14

Cu -3.0143509 0.7983493999999993 0.30259325000000104
Cu -2.0601500999999978 -0.10125159999999767 -1.7815055500000057
Cu -0.23184969999999439 -1.854452099999996 -1.9071998499999978
Cu 1.154449500000002 -2.562650699999999 0.7682992499999983
Cu 2.1269493000000033 -0.8403530000000003 -1.7416038500000042
Cu -1.5506515999999984 2.562650699999999 -0.6139030500000047
Cu -0.014850599999999048 0.8530483000000046 -2.5648994499999986
Zr -1.6774519999999988 -1.5145511999999997 1.7881966500000033
Cu 0.4430504000000006 -0.24435229999999564 2.5648994499999986
Zr 1.915950800000001 1.8178462999999994 1.4118995500000011
Cu 3.0143509 -0.9034517999999991 0.4335975500000018
Cu 1.8830490000000033 2.5533505000000005 -1.2642020499999944
Zr -0.9575499999999941 2.2717495000000056 2.0527000499999986
Zr 0.2895508000000042 0.1358472000000006 -0.08490374999999517
