17

Cu -1.595344499999996 0.1945514500000023 -2.7404995500000027
Cu 0.4836501999999996 1.0833511500000021 -2.8941975500000012
Cu -2.84375 -0.09364894999999862 0.12230104999999725
Cu 1.520050100000006 -2.164949449999998 -0.37919815000000057
Zr -0.44144439999999463 -3.0019493500000003 -2.005998650000002
Zr 1.3704529000000036 0.6235504499999998 2.5458010500000015
Zr 2.4943542999999977 -0.7616500500000001 -2.912500350000002
Zr -1.6226501000000013 -2.6189499499999975 0.9736995499999992
Cu 2.84375 -0.6678485499999987 0.6960009499999984
Cu -2.826149000000001 -1.4543495499999999 -1.8612003500000043
Cu -2.076149000000001 1.7607498499999998 -1.0790997499999975
Cu 1.8670501999999942 1.5927505500000017 -0.19479944999999788
Cu -1.1038436999999988 2.053951250000001 1.0878008500000007
Cu 0.10205080000000066 3.0019493500000003 -1.1798001499999984
Cu -1.2356489999999951 -0.5263499500000002 2.912500350000002
Cu 0.6889496000000008 -2.0077495499999998 2.128499849999997
Zr -0.3041458000000006 -0.25804905000000034 -0.5468006500000016
