16

Zr -2.306348700000001 -1.9591999000000033 -0.305049949999999
Cu 2.1765498999999977 -0.32339860000000265 -1.2442503499999997
Cu 0.4589520000000036 -2.5007 -1.12605005
Cu -2.2711467000000027 0.4499015999999987 -1.8102503500000005
Zr -0.018449799999999072 0.11660009999999765 -3.1039495499999994
Cu -3.0524502000000027 1.408000999999997 0.5588503500000002
Cu 1.7957516000000027 2.008701399999998 -2.6827497499999993
Zr 2.592950800000004 2.0589008999999994 -0.3445501499999999
Cu 0.8338528000000025 -2.4961986000000014 1.3959502500000003
Zr -1.1221485000000015 -1.3101997 2.376150150000001
Cu -0.7058467999999962 2.5007 0.46664995000000076
Cu -1.3758486999999988 1.4694003999999996 2.30465025
Cu 1.4077510999999987 -0.766599600000001 3.1039495499999994
Cu 1.2299519000000032 1.1730003 2.16454985
Cu 3.0524502000000027 0.30940059999999825 1.4147501499999997
Zr -0.030847600000001307 0.17380139999999678 -0.11305044999999936
