15

Cu -2.193401350000002 -1.9687480999999956 -1.1007538000000068
Cu -0.1497993500000021 -1.534448600000001 -0.8190536999999978
Zr 2.749999950000003 -0.9143505000000012 -1.1613540000000029
Zr -1.5515022499999986 0.9522495000000042 -2.142951999999994
Zr 1.6362991499999993 1.5231494999999988 -2.6274489999999986
Cu -0.44089894999999757 2.7697505999999983 -0.7468491000000057
Cu -1.937599149999997 2.3952503000000043 1.2349471999999935
Zr -3.005599949999997 0.20034980000000147 0.6424483999999921
Cu 3.005599949999997 0.12764929999999808 1.6061478000000022
Zr 2.394000949999999 2.114850999999998 0.036552400000005036
Zr -1.3357010499999973 -2.390748900000002 1.3922500999999983
Zr 0.7108993499999983 -0.721651099999999 2.614746100000005
Cu 1.2827987499999978 -2.7697505999999983 0.8307496000000043
Zr 0.7399978500000017 2.4935513000000036 2.6274489999999986
Cu 0.01379775000000194 0.6012517000000024 0.13645169999999496
