11

Zr -0.6469498499999986 -2.472349650000001 1.0140002
Cu -2.6790504499999983 -0.15554944999999964 1.2739804000000001
Cu -2.2599525500000013 0.24105125000000083 -0.9721295999999997
Cu 1.0130500499999968 -0.2078489499999998 2.1173599000000003
Zr -0.6351509500000034 2.21814965 -1.0310594999999996
Cu -0.9924507500000033 1.1173502500000003 1.8605201000000005
Zr 2.429950650000002 1.418249649999999 -1.7515795
Zr 2.6790504499999983 -1.2581495499999997 -0.7330496999999996
Zr 1.4522475500000027 2.472349650000001 1.1773702999999998
Cu -0.033851650000002564 -0.6551489500000018 -2.1173599000000003
Cu 0.20055014999999798 0.23045024999999963 -0.039889599999999525
