14

Cu 0.05555149999999642 0.05820079999999628 -2.770400050000001
Zr 1.1709499 -2.722900400000002 1.7158994499999967
Cu -1.7520465000000023 -1.2882996000000002 -1.7883005500000007
Cu -1.217348100000006 -2.719299300000001 0.28810025000000117
Zr -3.3407497 -0.37870030000000376 0.3524007500000028
Zr 0.8461514000000001 -2.1604995999999996 -1.6318006500000006
Cu 1.0570506999999942 -0.06089789999999873 2.770400050000001
Cu -2.361146900000005 1.3629989000000027 -1.9124001500000016
Cu -1.423448600000004 2.0966986999999992 0.7940015499999991
Zr 1.382951699999996 2.5079993999999974 -1.6193990500000002
Cu 1.3351496999999988 2.722900400000002 0.8266019499999988
Zr 3.3407497 0.6338996000000012 -0.27890105
Cu -1.2947483000000055 0.6804999999999968 2.6220007499999998
Zr 0.16164969999999457 0.09350200000000264 0.17130185000000075
