12

Zr 0.8967495000000003 -2.5092506499999985 0.09978367000000787
Zr -2.796249399999999 1.0153503499999985 0.6040637700000033
Zr 0.5522499000000014 2.369648050000002 -1.862964869999999
Cu -1.0371493000000012 -0.8121528499999968 1.9379036700000043
Cu 0.5710506999999989 -0.8596496500000015 -2.183063770000004
Zr 0.37095069999999986 2.5092506499999985 1.394033670000006
Zr 1.8803500999999994 0.10454945000000038 2.183063770000004
Zr 2.796249399999999 -0.05285254999999722 -1.252346529999997
Cu 2.5698509000000005 2.2226487499999976 0.2499535700000024
Zr -1.8445492000000012 -1.828952649999998 -0.6641562299999961
Cu -1.7692490000000003 0.8841476500000027 -1.8658639699999924
Cu 0.15884969999999932 0.16854874999999936 0.0015637700000041832
