16

Cu -0.9048003500000021 2.300249049999998 -0.8909997000000018
Cu 1.6427002499999972 0.056447949999999025 -1.8137007000000018
Cu -3.000999450000002 -1.381349649999997 0.4378004000000004
Cu -0.8609008500000002 -2.517751750000002 -0.3650999000000006
Zr -0.7071990499999998 -0.8334522500000006 -2.5397996999999997
Cu 2.6331024500000026 -1.868551349999997 -1.0117997999999986
Zr 0.9479027499999972 -2.7039509499999994 1.5448999000000008
Cu 3.000999450000002 0.28754994999999894 0.5507002000000014
Cu -0.9474982500000024 -0.4868488500000012 2.1803007
Cu -2.854900350000001 1.5522479500000017 1.1955995000000001
Cu 1.119899849999996 0.6601505499999973 2.5397996999999997
Cu 1.7933998500000001 2.524049750000003 -1.9303999000000012
Cu -2.393897950000003 0.3530482500000005 -1.3161000999999999
Zr 1.2248993500000012 2.7039509499999994 0.6673001999999997
Cu -1.0636977500000029 2.0788478500000025 2.5355005000000013
Zr -0.09499734999999987 -0.013448750000002008 -0.11349960000000081
