11

Zr 0.9355487499999988 1.286877170000004 -2.2723999
Zr -0.6864528500000056 2.8262210300000064 -0.26290129999999223
Zr -1.2370510500000016 -2.8262210300000064 0.3740997000000057
Cu 1.2950458499999975 -1.9151263299999997 -1.9827994999999952
Cu -0.7768535499999949 -1.0412250299999997 -2.1674002999999935
Zr -2.3232516499999996 0.061176769999995884 0.7988967999999979
Cu -2.5322513499999992 0.9090770700000022 -1.565998099999998
Cu 1.8949451500000016 1.2719769700000043 0.7335968000000044
Zr -0.22875025000000093 -0.23432503000000082 2.2723999
Zr 2.5322513499999992 -1.2838245299999969 0.4501037999999973
Cu -0.04365345000000431 -0.04472693000000305 -0.24620049999999694
