14

Cu 1.5150220149999996 -2.6414985999999985 -1.274749700000001
Zr 1.354718014999996 0.17390060000000318 -2.628852800000004
Cu 0.7078180150000009 2.6414985999999985 -2.1970519000000053
Zr 2.369007015000001 -1.3252983 0.6451492999999999
Cu 2.076312014999999 1.6316986 0.05515289999999595
Zr -1.246402615000001 -2.2865982000000002 -1.1502533000000028
Zr -2.0647010150000042 0.8141022000000007 -2.6405486999999965
Cu 1.4245370149999985 1.180500000000002 2.223251399999995
Cu -0.006521085000002813 -1.9906998000000016 2.0201493
Cu -2.369007015000001 -0.6739997999999972 0.556549099999998
Cu -1.132404215000001 0.24689860000000152 2.6405486999999965
Cu -2.2939032150000074 1.9346007999999983 0.5107498999999933
Cu -0.2781709850000027 2.6288985999999994 1.5065536999999978
Zr 0.07122901500000012 0.42210010000000153 -0.0008468000000050324
