324
3000.0 3000.0 3000.0 combined model
Zr 0.26909 1.963514 0.0
Zr 0.26909 1.963514 3.5784
Zr 0.26909 1.963514 7.1568
Zr 0.26909 1.963514 10.7352
Zr 0.26909 1.963514 14.3136
Zr -1.796655 10.067163 0.0
Zr -1.796655 10.067163 3.5784
Zr -1.796655 10.067163 7.1568
Zr -1.796655 10.067163 10.7352
Zr -1.796655 10.067163 14.3136
Zr -3.8624 18.170811 0.0
Zr -3.8624 18.170811 3.5784
Zr -3.8624 18.170811 7.1568
Zr -3.8624 18.170811 10.7352
Zr -3.8624 18.170811 14.3136
Zr 9.62049 1.963514 0.0
Zr 9.62049 1.963514 3.5784
Zr 9.62049 1.963514 7.1568
Zr 9.62049 1.963514 10.7352
Zr 9.62049 1.963514 14.3136
Zr 7.554745 10.067163 0.0
Zr 7.554745 10.067163 3.5784
Zr 7.554745 10.067163 7.1568
Zr 7.554745 10.067163 10.7352
Zr 7.554745 10.067163 14.3136
Zr 5.489 18.170811 0.0
Zr 5.489 18.170811 3.5784
Zr 5.489 18.170811 7.1568
Zr 5.489 18.170811 10.7352
Zr 5.489 18.170811 14.3136
Zr 7.016565 6.140134 0.0
Zr 7.016565 6.140134 3.5784
Zr 7.016565 6.140134 7.1568
Zr 7.016565 6.140134 10.7352
Zr 7.016565 6.140134 14.3136
Zr 4.95082 14.243782 0.0
Zr 4.95082 14.243782 3.5784
Zr 4.95082 14.243782 7.1568
Zr 4.95082 14.243782 10.7352
Zr 4.95082 14.243782 14.3136
Zr 2.885075 22.347431 0.0
Zr 2.885075 22.347431 3.5784
Zr 2.885075 22.347431 7.1568
Zr 2.885075 22.347431 10.7352
Zr 2.885075 22.347431 14.3136
Zr 16.367966 6.140134 0.0
Zr 16.367966 6.140134 3.5784
Zr 16.367966 6.140134 7.1568
Zr 16.367966 6.140134 10.7352
Zr 16.367966 6.140134 14.3136
Zr 14.302221 14.243782 0.0
Zr 14.302221 14.243782 3.5784
Zr 14.302221 14.243782 7.1568
Zr 14.302221 14.243782 10.7352
Zr 14.302221 14.243782 14.3136
Zr 12.236476 22.347431 0.0
Zr 12.236476 22.347431 3.5784
Zr 12.236476 22.347431 7.1568
Zr 12.236476 22.347431 10.7352
Zr 12.236476 22.347431 14.3136
Zr 3.911918 6.015338 1.7892
Zr 3.911918 6.015338 5.3676
Zr 3.911918 6.015338 8.946
Zr 3.911918 6.015338 12.5244
Zr 1.846173 14.118987 1.7892
Zr 1.846173 14.118987 5.3676
Zr 1.846173 14.118987 8.946
Zr 1.846173 14.118987 12.5244
Zr -0.219572 22.222635 1.7892
Zr -0.219572 22.222635 5.3676
Zr -0.219572 22.222635 8.946
Zr -0.219572 22.222635 12.5244
Zr 13.263318 6.015338 1.7892
Zr 13.263318 6.015338 5.3676
Zr 13.263318 6.015338 8.946
Zr 13.263318 6.015338 12.5244
Zr 11.197573 14.118987 1.7892
Zr 11.197573 14.118987 5.3676
Zr 11.197573 14.118987 8.946
Zr 11.197573 14.118987 12.5244
Zr 9.131827 22.222635 1.7892
Zr 9.131827 22.222635 5.3676
Zr 9.131827 22.222635 8.946
Zr 9.131827 22.222635 12.5244
Zr 3.373737 2.08831 1.7892
Zr 3.373737 2.08831 5.3676
Zr 3.373737 2.08831 8.946
Zr 3.373737 2.08831 12.5244
Zr 1.307992 10.191958 1.7892
Zr 1.307992 10.191958 5.3676
Zr 1.307992 10.191958 8.946
Zr 1.307992 10.191958 12.5244
Zr -0.757753 18.295607 1.7892
Zr -0.757753 18.295607 5.3676
Zr -0.757753 18.295607 8.946
Zr -0.757753 18.295607 12.5244
Zr 12.725139 2.08831 1.7892
Zr 12.725139 2.08831 5.3676
Zr 12.725139 2.08831 8.946
Zr 12.725139 2.08831 12.5244
Zr 10.659393 10.191958 1.7892
Zr 10.659393 10.191958 5.3676
Zr 10.659393 10.191958 8.946
Zr 10.659393 10.191958 12.5244
Zr 8.593648 18.295607 1.7892
Zr 8.593648 18.295607 5.3676
Zr 8.593648 18.295607 8.946
Zr 8.593648 18.295607 12.5244
Zr 6.085036 0.803072 0.0
Zr 6.085036 0.803072 3.5784
Zr 6.085036 0.803072 7.1568
Zr 6.085036 0.803072 10.7352
Zr 6.085036 0.803072 14.3136
Zr 4.019291 8.90672 0.0
Zr 4.019291 8.90672 3.5784
Zr 4.019291 8.90672 7.1568
Zr 4.019291 8.90672 10.7352
Zr 4.019291 8.90672 14.3136
Zr 1.953546 17.010368 0.0
Zr 1.953546 17.010368 3.5784
Zr 1.953546 17.010368 7.1568
Zr 1.953546 17.010368 10.7352
Zr 1.953546 17.010368 14.3136
Zr 15.436438 0.803072 0.0
Zr 15.436438 0.803072 3.5784
Zr 15.436438 0.803072 7.1568
Zr 15.436438 0.803072 10.7352
Zr 15.436438 0.803072 14.3136
Zr 13.370692 8.90672 0.0
Zr 13.370692 8.90672 3.5784
Zr 13.370692 8.90672 7.1568
Zr 13.370692 8.90672 10.7352
Zr 13.370692 8.90672 14.3136
Zr 11.304947 17.010368 0.0
Zr 11.304947 17.010368 3.5784
Zr 11.304947 17.010368 7.1568
Zr 11.304947 17.010368 10.7352
Zr 11.304947 17.010368 14.3136
Zr 1.200619 7.300577 0.0
Zr 1.200619 7.300577 3.5784
Zr 1.200619 7.300577 7.1568
Zr 1.200619 7.300577 10.7352
Zr 1.200619 7.300577 14.3136
Zr -0.865126 15.404225 0.0
Zr -0.865126 15.404225 3.5784
Zr -0.865126 15.404225 7.1568
Zr -0.865126 15.404225 10.7352
Zr -0.865126 15.404225 14.3136
Zr -2.930871 23.507872 0.0
Zr -2.930871 23.507872 3.5784
Zr -2.930871 23.507872 7.1568
Zr -2.930871 23.507872 10.7352
Zr -2.930871 23.507872 14.3136
Zr 10.552019 7.300577 0.0
Zr 10.552019 7.300577 3.5784
Zr 10.552019 7.300577 7.1568
Zr 10.552019 7.300577 10.7352
Zr 10.552019 7.300577 14.3136
Zr 8.486274 15.404225 0.0
Zr 8.486274 15.404225 3.5784
Zr 8.486274 15.404225 7.1568
Zr 8.486274 15.404225 10.7352
Zr 8.486274 15.404225 14.3136
Zr 6.420529 23.507872 0.0
Zr 6.420529 23.507872 3.5784
Zr 6.420529 23.507872 7.1568
Zr 6.420529 23.507872 10.7352
Zr 6.420529 23.507872 14.3136
Zr 0.376464 4.854896 1.7892
Zr 0.376464 4.854896 5.3676
Zr 0.376464 4.854896 8.946
Zr 0.376464 4.854896 12.5244
Zr -1.689281 12.958544 1.7892
Zr -1.689281 12.958544 5.3676
Zr -1.689281 12.958544 8.946
Zr -1.689281 12.958544 12.5244
Zr -3.755026 21.062193 1.7892
Zr -3.755026 21.062193 5.3676
Zr -3.755026 21.062193 8.946
Zr -3.755026 21.062193 12.5244
Zr 9.727864 4.854896 1.7892
Zr 9.727864 4.854896 5.3676
Zr 9.727864 4.854896 8.946
Zr 9.727864 4.854896 12.5244
Zr 7.662119 12.958544 1.7892
Zr 7.662119 12.958544 5.3676
Zr 7.662119 12.958544 8.946
Zr 7.662119 12.958544 12.5244
Zr 5.596374 21.062193 1.7892
Zr 5.596374 21.062193 5.3676
Zr 5.596374 21.062193 8.946
Zr 5.596374 21.062193 12.5244
Zr 6.909192 3.248753 1.7892
Zr 6.909192 3.248753 5.3676
Zr 6.909192 3.248753 8.946
Zr 6.909192 3.248753 12.5244
Zr 4.843447 11.352401 1.7892
Zr 4.843447 11.352401 5.3676
Zr 4.843447 11.352401 8.946
Zr 4.843447 11.352401 12.5244
Zr 2.777702 19.456049 1.7892
Zr 2.777702 19.456049 5.3676
Zr 2.777702 19.456049 8.946
Zr 2.777702 19.456049 12.5244
Zr 16.260592 3.248753 1.7892
Zr 16.260592 3.248753 5.3676
Zr 16.260592 3.248753 8.946
Zr 16.260592 3.248753 12.5244
Zr 14.194846 11.352401 1.7892
Zr 14.194846 11.352401 5.3676
Zr 14.194846 11.352401 8.946
Zr 14.194846 11.352401 12.5244
Zr 12.129102 19.456049 1.7892
Zr 12.129102 19.456049 5.3676
Zr 12.129102 19.456049 8.946
Zr 12.129102 19.456049 12.5244
Cu 2.459776 4.327348 0.0
Cu 2.459776 4.327348 3.5784
Cu 2.459776 4.327348 7.1568
Cu 2.459776 4.327348 10.7352
Cu 2.459776 4.327348 14.3136
Cu 0.394031 12.430996 0.0
Cu 0.394031 12.430996 3.5784
Cu 0.394031 12.430996 7.1568
Cu 0.394031 12.430996 10.7352
Cu 0.394031 12.430996 14.3136
Cu -1.671714 20.534643 0.0
Cu -1.671714 20.534643 3.5784
Cu -1.671714 20.534643 7.1568
Cu -1.671714 20.534643 10.7352
Cu -1.671714 20.534643 14.3136
Cu 11.811176 4.327348 0.0
Cu 11.811176 4.327348 3.5784
Cu 11.811176 4.327348 7.1568
Cu 11.811176 4.327348 10.7352
Cu 11.811176 4.327348 14.3136
Cu 9.745432 12.430996 0.0
Cu 9.745432 12.430996 3.5784
Cu 9.745432 12.430996 7.1568
Cu 9.745432 12.430996 10.7352
Cu 9.745432 12.430996 14.3136
Cu 7.679687 20.534643 0.0
Cu 7.679687 20.534643 3.5784
Cu 7.679687 20.534643 7.1568
Cu 7.679687 20.534643 10.7352
Cu 7.679687 20.534643 14.3136
Cu 4.825879 3.7763 0.0
Cu 4.825879 3.7763 3.5784
Cu 4.825879 3.7763 7.1568
Cu 4.825879 3.7763 10.7352
Cu 4.825879 3.7763 14.3136
Cu 2.760134 11.879949 0.0
Cu 2.760134 11.879949 3.5784
Cu 2.760134 11.879949 7.1568
Cu 2.760134 11.879949 10.7352
Cu 2.760134 11.879949 14.3136
Cu 0.694389 19.983597 0.0
Cu 0.694389 19.983597 3.5784
Cu 0.694389 19.983597 7.1568
Cu 0.694389 19.983597 10.7352
Cu 0.694389 19.983597 14.3136
Cu 14.177279 3.7763 0.0
Cu 14.177279 3.7763 3.5784
Cu 14.177279 3.7763 7.1568
Cu 14.177279 3.7763 10.7352
Cu 14.177279 3.7763 14.3136
Cu 12.111534 11.879949 0.0
Cu 12.111534 11.879949 3.5784
Cu 12.111534 11.879949 7.1568
Cu 12.111534 11.879949 10.7352
Cu 12.111534 11.879949 14.3136
Cu 10.04579 19.983597 0.0
Cu 10.04579 19.983597 3.5784
Cu 10.04579 19.983597 7.1568
Cu 10.04579 19.983597 10.7352
Cu 10.04579 19.983597 14.3136
Cu 8.168349 0.275523 1.7892
Cu 8.168349 0.275523 5.3676
Cu 8.168349 0.275523 8.946
Cu 8.168349 0.275523 12.5244
Cu 6.102604 8.379171 1.7892
Cu 6.102604 8.379171 5.3676
Cu 6.102604 8.379171 8.946
Cu 6.102604 8.379171 12.5244
Cu 4.036859 16.482821 1.7892
Cu 4.036859 16.482821 5.3676
Cu 4.036859 16.482821 8.946
Cu 4.036859 16.482821 12.5244
Cu 17.519749 0.275523 1.7892
Cu 17.519749 0.275523 5.3676
Cu 17.519749 0.275523 8.946
Cu 17.519749 0.275523 12.5244
Cu 15.454004 8.379171 1.7892
Cu 15.454004 8.379171 5.3676
Cu 15.454004 8.379171 8.946
Cu 15.454004 8.379171 12.5244
Cu 13.388259 16.482821 1.7892
Cu 13.388259 16.482821 5.3676
Cu 13.388259 16.482821 8.946
Cu 13.388259 16.482821 12.5244
Cu -0.882693 7.828125 1.7892
Cu -0.882693 7.828125 5.3676
Cu -0.882693 7.828125 8.946
Cu -0.882693 7.828125 12.5244
Cu -2.948438 15.931773 1.7892
Cu -2.948438 15.931773 5.3676
Cu -2.948438 15.931773 8.946
Cu -2.948438 15.931773 12.5244
Cu -5.014184 24.035421 1.7892
Cu -5.014184 24.035421 5.3676
Cu -5.014184 24.035421 8.946
Cu -5.014184 24.035421 12.5244
Cu 8.468707 7.828125 1.7892
Cu 8.468707 7.828125 5.3676
Cu 8.468707 7.828125 8.946
Cu 8.468707 7.828125 12.5244
Cu 6.402962 15.931773 1.7892
Cu 6.402962 15.931773 5.3676
Cu 6.402962 15.931773 8.946
Cu 6.402962 15.931773 12.5244
Cu 4.337217 24.035421 1.7892
Cu 4.337217 24.035421 5.3676
Cu 4.337217 24.035421 8.946
Cu 4.337217 24.035421 12.5244
