14

Cu -0.3238496499999979 1.008802400000004 -2.550748800000001
Cu -1.798350349999998 -1.1420002000000018 -1.768949500000005
Zr 1.3789491500000022 -1.2726001999999959 -1.937150900000006
Zr 1.9664506500000005 1.6919994000000038 -1.118452099999999
Cu -0.3832502499999979 -3.053800599999999 -0.6539517000000004
Zr 0.398348750000002 -2.2744998999999986 2.0961512999999954
Cu -2.4246511500000008 -0.9605007000000008 0.5409488999999965
Zr -2.619549749999999 1.6092014 -0.5940495000000041
Cu 0.05235004999999937 0.7668017999999996 2.550748800000001
Cu 2.3746499500000002 -0.9738979000000008 0.40064809999999795
Zr 2.619549749999999 1.4744015000000026 1.6602496999999943
Zr -1.7377500500000007 2.7487011000000017 2.324548699999994
Cu 0.15124985000000102 3.053800599999999 -0.055551499999999976
Cu -0.07714944999999851 0.2670002000000018 0.20334809999999948
