13

Cu -2.236700050000003 1.504399300000001 -1.2692508499999997
Zr 0.8952999500000018 -0.9690007999999981 -2.5392503500000005
Cu 2.832399350000003 -0.5348996999999986 -0.7793502500000011
Cu -1.4591998499999974 -1.724999500000001 -2.222550450000001
Cu -0.15609924999999691 2.4329996000000005 -1.8351507500000013
Cu -0.8635005499999977 -2.3037995999999996 1.8606500500000012
Zr 0.2861995499999992 -3.0161008999999996 -0.32515044999999976
Zr -2.832399350000003 0.8193006 1.2485494499999996
Cu 1.43169975 2.3613996000000004 0.32684994999999883
Cu -2.5729007500000023 -1.6495008999999978 0.3861494499999987
Zr 0.7750988499999991 -0.019700099999999665 2.5392503500000005
Zr -0.6875018499999968 3.0161008999999996 1.3037500499999988
Zr -0.3029994500000015 0.02369969999999988 -0.008450550000000057
