13

Zr -0.6888504000000033 -0.1557502500000041 -2.9819488499999984
Cu -0.453350099999998 -2.1030463499999925 -0.40295024999999995
Zr 1.9710463999999952 -0.9999503499999989 -2.597949950000004
Zr 0.40444940000000074 2.5650520499999985 1.466850449999999
Cu -0.5423507999999977 1.5314521499999998 -1.0302505500000017
Zr 2.2987517999999945 1.7238502500000052 -1.2875480500000016
Zr -2.6000519000000004 -0.2711524499999953 -0.04724884999999901
Cu -0.6848526000000028 -1.5778464500000027 2.3833504499999982
Cu -1.1497497999999986 0.8292503500000024 2.804050450000002
Cu 1.0862502999999997 -2.5650520499999985 1.3709488500000013
Cu 2.6000519000000004 0.637752550000009 1.059551250000002
Zr 1.6075515999999972 -0.4198493499999998 2.9819488499999984
Cu 0.32814790000000116 -0.12144844999999549 0.4366494500000009
