13

Cu -1.821399699999997 -1.8432502500000005 -0.8274975000000033
Zr -0.8418998999999978 -0.2343483500000012 -2.439600000000002
Zr -0.7355995000000028 -1.8333511500000021 1.3866023999999975
Zr 1.2233010000000029 -2.796550749999998 -1.911096599999997
Zr -2.5685005000000025 0.9892501500000002 -0.2955989999999993
Cu -0.8182982999999986 2.0696487500000025 1.0372027999999993
Zr -0.2549972000000018 2.796550749999998 -2.1469975000000012
Cu 2.014701900000002 1.9792518500000007 0.2170008999999986
Cu 1.8113021999999965 -1.2205505500000022 0.8231028999999985
Zr 2.5685005000000025 0.4148483499999962 -1.9690990999999975
Cu -2.4230003000000018 -0.0792503499999988 2.0293025999999976
Zr 0.6893005999999993 0.5476493499999968 2.439600000000002
Cu 0.16239930000000058 0.09465024999999727 -0.2674999000000007
