13

Cu -1.7357501999999947 -2.926742730000008 -1.0349006500000009
Zr -2.9292507000000008 0.555854570000001 -0.12430194999999955
Cu -1.5577487000000012 0.018157769999994855 -2.05920025
Zr 0.020250400000005442 2.926742730000001 -0.859199450000002
Zr 1.4336491000000002 -0.2825395300000011 -1.834102650000002
Zr 0.5484487000000051 -2.4786455300000014 0.29089734999999806
Cu -2.814950899999996 -2.0738451300000023 0.8057975500000047
Cu -1.1007479999999994 1.3529584699999972 1.8960990500000001
Cu 2.341348700000001 1.7905576699999912 -0.2702026499999981
Cu -0.6198481999999963 -0.9119417300000023 2.05920025
Cu 1.3122502000000047 0.9166562699999972 1.452899949999999
Cu 2.9292507000000008 -0.6993410300000065 0.26449975000000236
Cu -0.39964869999999664 -0.01804372999999515 -0.03050234999999546
