11

Cu -0.0556011500000011 -0.6463508999999998 2.375429820000001
Zr 2.3332004499999996 0.5314503000000013 0.9156196200000011
Cu 0.29920005000000316 -2.5923500000000015 0.9483196199999995
Cu -2.0725002499999974 1.1464499999999997 1.6544196199999988
Zr -2.3332004499999996 -0.626449599999999 -0.20762902000000594
Cu 0.11030004999999932 -1.9245511000000004 -1.5159328200000104
Cu 2.0598010500000044 -0.36415100000000145 -1.7016323200000087
Cu -0.14520075000000077 0.5106506 -2.375429820000001
Zr 0.730901750000001 2.5923500000000015 -1.053934820000002
Cu -2.062601049999998 1.7008494999999986 -1.130930720000002
Cu -0.08279994999999474 -0.059351000000001264 0.2409717800000024
