16

Cu -2.2352992 -1.0600405000000004 0.654299700000001
Cu -2.1500997999999996 1.1498593999999995 -1.4917001999999986
Cu -1.409699500000002 -1.6228398999999998 -1.450899999999999
Zr -0.26699930000000194 0.34165960000000073 -3.2279997
Cu 1.1365003999999992 -1.4633398000000009 -1.7036008999999996
Cu 2.9040993999999998 -0.3527402999999998 0.5477000000000007
Cu 0.2202996000000006 -2.8102598 0.48240000000000016
Cu -0.4205008000000028 2.7633599999999996 -0.34050079999999916
Zr 2.0077999999999996 2.4317599000000003 -1.1785993999999977
Zr -2.191100200000001 0.5611600999999995 3.2279997
Cu 0.5574005999999976 0.3646602999999997 3.2058000999999994
Cu 2.1626996 1.3256597999999995 1.6974001000000012
Cu 1.5604008999999976 -1.7409401000000004 1.9024000000000019
Zr -0.2676001000000028 2.8102598 2.5630007999999993
Cu -2.9040993999999998 1.3183593999999994 0.9409989999999997
Zr -0.10780049999999974 0.4125594999999995 0.26319980000000065
