12

Zr -0.5033502999999975 -1.6578006500000022 -2.0185508500000005
Cu 1.7981501000000009 -0.32790184999999994 -1.6449508500000007
Cu -2.4220495 -1.13990205 -0.004848449999997229
Cu 1.3763494000000023 -1.9442005500000015 0.4099502500000014
Cu -2.089350699999997 0.7679005499999967 -1.2628517499999958
Cu 0.1366511000000017 0.9399013500000031 -2.30084995
Cu -0.8049496999999981 2.292299250000003 0.12155154999999951
Zr 2.4220495 1.8140011499999993 -0.34144975000000244
Zr -0.8032502999999984 -2.292299250000003 1.882148749999999
Zr -1.0558499999999995 0.8513011500000012 2.30084995
Cu 1.6770506000000012 0.7371007499999997 2.0900497499999986
Cu 0.21275050000000206 -0.16769985000000176 0.010250050000003341
