16

Cu -2.8054961999999932 -1.667749350000003 -0.7378647499999995
Cu -0.7676009999999991 -2.89974975 -0.4511449499999993
Cu -0.23010259999999505 0.41655164999999705 2.55960485
Cu 0.9620972000000023 -1.7669486500000016 -2.1331946499999996
Zr 2.9533004999999974 0.16965104999999703 -1.2021949499999995
Cu 1.9390029999999996 -2.1901493500000004 -0.11161494999999944
Cu -0.11100009999999827 0.41865164999999926 -2.55960485
Cu 2.312896699999996 -0.21514895000000145 1.8427155499999999
Cu -1.5786970999999994 2.89974975 1.4510548500000007
Zr -0.25560000000000116 2.493850649999997 -0.9467947499999991
Cu -2.449302700000004 0.42645085000000016 1.4455749499999997
Cu -2.219596899999999 0.682451249999998 -1.36629465
Cu 1.1958008000000007 2.1986503499999994 1.16245485
Zr -2.9533004999999974 -2.05154995 1.6011955500000004
Cu 0.5247039000000058 -2.0052490500000015 2.198195650000001
Zr -0.3928985999999952 -0.3502502500000002 0.1853153500000002
