15

Cu -0.4858994000000001 -1.9552002000000037 -1.0819493000000016
Zr 1.1844000999999986 0.3419989999999977 -2.8822498000000003
Cu 2.0673994999999996 -0.7441025000000003 -0.7392520999999981
Zr -1.5819001000000013 0.3095970000000001 -1.7854519000000018
Cu 1.8760009000000002 1.8326987999999993 -0.9313487999999985
Cu -1.4791999000000002 -2.5314026000000034 0.9796505000000018
Cu -2.9180999000000005 -1.0177993999999977 2.059248
Zr 1.5555004999999982 -2.904899600000004 0.6670513000000007
Cu 2.459399699999998 -1.434001900000002 2.733751299999998
Zr -0.33530000000000104 -1.2726021000000038 2.8822498000000003
Cu -2.3323998 1.1308974999999997 1.1665478
Zr -0.7451997000000015 2.904899600000004 -0.5279521999999979
Zr 2.9180999000000005 1.0350989999999989 1.3823490000000014
Cu 0.47690059999999956 1.7957993000000023 1.503049800000003
Cu 0.19090029999999825 -0.10820010000000124 0.3689479999999996
