12

Zr 0.14244640000000075 -2.1476554499999994 -1.8611400500000004
Cu -1.6609517000000018 -2.5444850499999996 0.4086201499999995
Zr -2.4237499000000007 0.009284950000000514 -1.4864199500000006
Cu -2.121652700000002 0.27528474999999997 1.239799749999999
Zr -0.059953799999998836 1.7883844499999997 2.47451995
Zr -1.5059529000000005 2.5444850499999996 -0.2736999500000006
Cu 1.7988490000000006 1.9010849500000004 -0.15040995000000068
Zr 1.0771465000000013 0.4671850500000003 -2.4745199500000004
Zr 2.201249999999998 -1.4334754500000004 0.5424401499999996
Cu -0.11945160000000143 -1.4885148500000005 2.2037699499999994
Cu 2.4237499000000007 1.02218535 2.3776399499999994
Cu -0.15245260000000016 -0.18171494999999904 0.22116014999999978
