17

Cu -2.564199450000004 1.0947989999999983 -0.6376647699999936
Cu -2.210901249999999 -0.39690020000000104 2.148375470000005
Zr 0.10709955000000093 0.5960998000000011 3.028465270000005
Cu 1.5282001499999964 -2.171899800000002 0.4388053700000043
Cu -1.8812006500000038 -2.5598001000000004 1.060935470000004
Cu 0.3328991499999958 -1.9386997000000008 2.263075370000003
Cu 2.3901005499999997 -0.14520080000000135 1.6277255700000026
Cu 2.082300349999997 1.577800700000001 -0.6432647699999947
Cu -1.3098010500000044 2.1881999999999984 1.3175053700000063
Cu -3.17619895 -1.5618000999999992 -0.8327636699999985
Zr -0.9330004500000015 -2.8334998999999996 -1.7265624699999975
Cu -1.9643992499999996 -0.3490010000000012 -2.63486477
Cu 0.901098349999998 -0.9640006999999997 -2.33596807
Zr 3.17619895 -0.9864005999999996 -1.3233642700000061
Cu 0.057001149999997835 2.8334998999999996 -0.549362170000002
Zr -0.02390095000000514 1.8012008000000002 -3.028465270000005
Zr 0.024698349999994207 -0.08230019999999882 -0.2314682700000006
