12

Cu -1.7111511499999992 0.7441482999999991 -2.3875503500000015
Cu 1.0761489499999968 -1.4844513000000035 -1.7162494499999994
Cu -0.8198471500000082 0.418350199999999 1.8624496499999985
Cu -1.7540512500000105 -1.9146500000000017 -0.2975501499999993
Cu 1.7138518499999904 -1.4115486000000033 1.906950049999999
Cu -0.23235325000000984 -2.1651497000000006 1.1638507500000017
Zr -2.824249250000001 0.5392493999999957 0.005251050000001811
Zr 1.2644500500000007 1.6648482999999956 -2.0932502500000005
Zr 2.824249250000001 0.9801482999999962 -0.17605014999999824
Cu -0.6088485499999976 2.1651497000000006 0.17284964999999985
Zr 1.2611465499999994 1.6800499000000002 2.3875503500000015
Cu 0.47885134999999224 0.0030517000000003236 -0.15295024999999995
