11

Cu 1.3224983499999965 -2.449500999999998 0.48780054999999933
Cu -2.213001249999998 0.6357956000000087 -1.3882979499999983
Cu -1.4071998499999978 0.6253968000000043 1.465301450000009
Cu -1.2583999499999976 -1.7283020999999934 -1.9949989499999994
Zr -0.6180000499999991 2.449500999999998 0.039199750000005196
Cu 1.6655998499999995 -1.5078048999999965 -1.696598049999995
Cu 2.213001249999998 1.1485977000000105 -0.14810184999999265
Zr 0.795497950000005 0.9640959999999978 -2.37110135
Cu -1.030899049999995 -2.1495056999999917 1.5537032500000088
Zr 1.5721016500000005 -0.047905000000000086 2.37110135
Cu 0.20899585000000087 -0.5276032000000015 -0.35990134999999057
