12

Zr 0.17179959999999816 -2.6931496000000017 0.11325080000000298
Cu -2.307000199999999 -2.07695 0.8783493000000036
Zr -2.2465010000000003 0.2310485999999976 -1.0282515999999973
Cu -0.46000010000000024 -0.34104919999999694 -2.9245491
Cu -0.9806013999999994 2.415748600000004 0.4845505999999986
Zr 2.307000199999999 0.5490493999999977 -1.2545508999999981
Cu 1.9732998999999989 -0.402549699999998 1.4273492000000019
Zr 0.14049999999999763 2.6931496000000017 -1.5573499999999996
Zr 0.3291997999999996 2.2084504000000003 2.5788498000000004
Cu -1.8189001999999999 -0.1701506999999971 2.5791511999999983
Zr 0.48659989999999986 -1.6342505999999979 2.9245491
Cu -0.062300699999999765 0.5156479000000012 0.6037482999999995
