15

Cu 1.587352799999998 -0.3668995499999994 -2.232196800000011
Cu -1.0398520999999974 -0.9869976499999993 -2.3035011999999995
Cu 0.231052499999997 1.7439021500000038 -2.605701400000001
Zr -0.8743476999999942 -3.0090999499999995 0.08610149999999805
Cu -2.4499474000000063 -0.2350978499999954 -0.6018029000000098
Cu -2.117450699999999 1.82439995 -1.4237023000000022
Cu -2.4084511000000006 0.2549991500000033 1.9463997000000006
Zr -0.3360481000000064 -1.705900149999998 2.605701400000001
Cu 2.4499474000000063 0.8052005500000021 -0.030796100000003435
Cu 1.738147700000006 -1.4834995499999977 0.00490189999999302
Cu 2.0638542000000015 -0.636800749999999 2.292301199999997
Zr 1.187351200000002 2.0860996500000013 2.1656989999999894
Zr -2.169849399999997 3.0090999499999995 1.4845007999999922
Cu 0.6710471999999967 2.643800750000004 -0.5534020000000055
Zr -0.31474689999999583 0.14349934999999903 0.16140359999999987
