17

Zr 0.11929985000000087 0.1346015499999993 -3.10759925
Cu -2.52069955 0.49330134999999586 -1.947698550000002
Cu -2.535300249999999 -2.174098950000001 -0.9205989500000022
Cu 2.233399349999999 -2.213699350000006 -1.15379905
Cu -2.204699550000001 -2.088096650000004 2.570001650000002
Cu -0.46950054999999935 -3.0900001500000016 -1.7987995500000018
Zr 0.46219925000000117 -2.263797750000002 1.2235012499999982
Cu -0.3135004499999994 -0.9142990500000039 3.10759925
Zr -2.97230055 0.6081008499999925 0.7851009500000004
Cu 0.34299945000000065 1.7817039500000007 -1.3543987500000014
Cu -1.9308004499999996 2.7719001500000005 -0.10190014999999875
Zr 0.803500249999999 3.0900001500000016 1.017801249999998
Cu -1.20959955 1.7538032499999971 2.1164989500000004
Cu 2.2991990499999986 0.16260144999999682 -1.3477001500000014
Zr 2.97230055 0.21810144999999892 1.5804996500000001
Cu 1.039900750000001 0.8829002499999987 3.024000149999999
Zr -0.33619975000000224 -0.016197250000004715 0.15060234999999977
