12

Zr -2.360500349999999 -0.2441501499999994 1.619041529999997
Zr -0.11650085000000132 -2.6666507499999987 2.229659869999999
Cu -0.03989985000000118 -2.622949649999999 -0.28446187000000833
Cu -1.5193996500000004 -0.9802494499999987 -1.9464644700000022
Cu 1.740600650000001 0.10524934999999758 1.8849413299999966
Zr 2.360500349999999 -2.1283474500000032 0.6373368300000024
Zr 1.0643006499999998 -1.4345492499999999 -2.229659869999999
Zr -2.158899250000001 1.3929500499999996 -1.1907576700000035
Cu 1.985099850000001 1.1110515499999956 -1.6204603699999964
Zr 0.25289915000000107 2.6666507499999987 0.12443552999999241
Cu -0.37030024999999966 1.2018489499999951 2.127329969999998
Cu 0.11359984999999995 -0.08325005000000019 -0.10886366999999808
