14

Zr -0.16910070000000132 -0.06090020000000074 -2.722549449999999
Cu -2.6977013999999997 -1.3139004000000014 0.06455225000000198
Zr -1.1416006000000003 -2.1694999 2.271751349999999
Cu -0.4219007000000019 -2.7985997000000005 -1.2506523499999993
Cu 1.9672002999999982 -2.5119004 0.4513473500000025
Cu 2.7039003999999984 -1.5762 -1.3371505500000005
Cu 2.7522000999999996 0.17659989999999937 0.23455055000000513
Cu -2.7522000999999996 1.136800299999999 -1.565452650000001
Cu -1.1936006 1.1425995999999987 2.065246549999994
Cu -1.0969000000000015 2.341900299999999 -0.19435125000000042
Cu 2.5267993000000004 0.8958000999999989 -2.2573509499999993
Zr 1.435599400000001 0.022200099999999168 2.722549449999999
Cu 0.6211005000000007 2.7985997000000005 2.210845950000003
Zr -0.030800800000001516 -0.007700500000000332 0.0668487500000019
