12

Zr -2.3496494000000006 0.359251050000001 -1.5389499500000028
Zr -0.11725050000000081 -1.5548496499999978 -2.7605495500000004
Zr 2.3496494000000006 -0.08504675000000006 -1.8651485500000007
Zr 0.08775139999999837 2.2072506500000024 -2.624750150000004
Zr -1.4418506999999998 -1.8253497499999973 0.2541484499999953
Cu -0.5652484999999992 0.08815195000000031 2.7605495500000004
Cu 1.3957500000000032 -2.2884502500000004 -0.6550502500000022
Zr 1.978548 0.5502529500000044 1.3721484499999974
Cu -2.2273502 0.7251529500000053 1.4142513500000007
Cu -1.2204494999999973 2.258649850000001 -0.053148249999999564
Cu 1.4198513000000013 2.2884502500000004 -0.28975104999999957
Cu 0.2826480999999994 0.05395315000000167 -0.13554955000000035
