13

Cu -1.9448509499999993 -1.7141499000000016 -1.8480996999999997
Zr -0.4872474500000017 -2.4700503000000014 0.27832980000000074
Cu -2.2569503500000003 -0.5333504000000007 1.5548296000000006
Cu 1.9691505499999984 -2.5227504000000005 -1.7596397000000001
Cu 1.9694518500000022 -1.3412500000000014 0.8066301000000005
Cu 0.16275024999999843 -1.2965503000000007 -2.8292303
Cu 0.6885490500000024 2.5227504000000005 -1.0689697999999987
Zr -2.034950249999998 1.3176493999999996 -1.4099797999999995
Cu -0.8824501500000004 1.7112497999999983 0.9531297000000007
Zr 2.2569503500000003 0.2818493999999996 -1.8172398000000003
Zr 2.0130500500000004 1.578849299999999 1.3354301000000008
Zr 0.3431511500000006 -0.17025040000000136 2.8292303
Cu 0.6457519500000011 0.05204919999999813 -0.02056979999999964
