15

Zr 0.19356306500000642 -0.11407005000000048 -2.9233503499999998
Cu 2.2221451650000006 -1.2334900500000003 -1.2049513499999982
Cu 2.6686751650000033 0.9713296499999995 -2.440751149999997
Zr 0.062125165000004756 -2.76992995 -1.1860513499999996
Cu -0.9705848349999968 2.76992995 -0.8061513499999968
Cu -2.2867440650000006 0.7134293500000002 -2.3436517499999994
Cu -2.2667474650000017 -1.627710350000001 -1.4453516499999992
Zr -2.7362450649999985 0.70232955 0.3447484500000009
Zr -0.758446665000001 -1.6516800500000013 2.0392484500000023
Zr 2.1268910650000024 -1.87229065 1.8391485500000009
Cu 0.8248100650000012 -0.10157024999999997 2.7614507500000016
Cu 2.7362450650000056 1.9804295500000002 1.1041498500000024
Cu -1.514649365000004 1.0709294499999995 2.9233503499999998
Zr 0.23703206500000107 2.7112301499999987 2.087548250000001
Zr 0.31649006500000354 0.3347300499999992 0.025149350000003068
