13

Cu -1.3743195999999993 0.1452522000000016 -1.3842468499999967
Zr 0.06847050000000054 2.1821517999999998 -2.0165481500000055
Zr 1.0131696999999993 -1.0950508999999968 -2.2829513500000047
Cu -1.3092599000000003 -2.4887504000000007 -1.8814468500000032
Cu 1.6544700000000003 -2.499450600000003 0.5489502500000043
Zr -1.5846896000000004 -2.6087494000000007 1.0068511500000028
Cu 3.29567 -0.731948899999999 0.11865235000000496
Zr -3.29567 0.5183523999999977 0.6732483499999944
Cu -0.4946303999999997 -0.6731490999999963 2.2829513500000047
Zr -0.7752300000000001 2.6087494000000007 1.0734481500000044
Cu 1.8022703999999998 1.0798491999999982 -0.7041473499999995
Zr 1.6944699 0.6477507999999972 1.7633514500000018
Cu -0.022329800000000954 -0.6237488000000013 0.19665525000000628
