15

Zr -2.7983774500000003 -1.1754951500000033 -0.9712008999999995
Cu 0.6199077500000003 -2.6023979499999967 -1.2994994999999996
Cu -1.7583724500000002 1.6465034499999973 -0.3854007000000017
Cu 1.69296735 -0.1698951500000021 -2.9346999999999994
Cu -0.4983125500000001 -0.8071022499999998 -2.7546004999999987
Cu -0.14194234999999988 1.8838005500000037 -2.5174999000000007
Cu 0.31240745000000025 2.6023979499999967 0.04500009999999932
Cu 2.5326976500000002 -1.2743949500000014 -1.3491992999999987
Cu -0.5475424499999999 -2.3220024499999994 1.7789001000000013
Cu 1.9976577500000001 -1.8389015500000028 1.4146004000000012
Zr -2.5835424500000004 0.2506980499999969 1.8897991000000012
Cu 0.7278775499999997 -0.8601951499999956 2.9346999999999994
Cu 0.6350774499999998 2.186603550000001 2.382299400000001
Zr 2.7983774500000003 1.3852043500000093 0.647499100000001
Zr 0.3093375499999995 -0.5650978500000008 0.11799999999999855
