17

Cu -1.1684511499999992 -1.9661002499999984 -1.7769508000000016
Cu -1.0880489499999975 -3.00589995 0.7894477999999978
Cu 0.7957478500000015 -3.206200149999999 -1.2359504000000001
Zr 1.3131504499999984 -0.8765998499999998 -2.9052506000000022
Cu -1.1064509499999993 0.7504009500000013 -1.9769515999999996
Zr -3.2060489499999996 -0.16229964999999957 -0.24684900000000454
Cu -1.62685205 0.8946995500000003 2.9052506000000022
Cu -1.37804985 1.4396996499999997 0.8424491999999972
Zr -0.18065065000000047 3.206200149999999 -1.105548800000001
Cu 1.4616489500000007 1.6089996499999994 -2.0080489999999998
Zr 3.2060489499999996 0.9452996500000008 0.19784930000000145
Cu 2.464750349999999 -1.3696999499999993 -0.494548800000004
Zr 1.666250250000001 -3.17170005 1.4699478
Cu 2.4139500500000004 -0.9571995499999986 2.573551199999997
Zr 1.1300487500000038 1.5088009499999995 2.269348100000002
Cu -0.5924510499999975 -1.0566001499999995 2.1629486
Zr 0.2631512500000035 -0.24219944999999932 0.05784990000000079
