14

Cu -2.119045249999999 -1.4216957499999978 2.0982406200000057
Cu 2.3206519499999985 0.5721015499999993 1.7313407199999986
Zr 0.08765024999999582 -0.03960035000000062 2.699290519999998
Zr -1.5562477499999972 1.6532020500000044 0.5785804200000015
Cu 1.3931541500000009 2.2378044499999987 0.4246109800000042
Cu -0.07735064999999963 2.68020245000001 2.3844902200000035
Zr -0.5192451500000033 -2.692600249999998 -0.13639371999999383
Cu 1.5040550500000052 -1.087299349999995 -2.3144943200000014
Zr 2.4085502500000047 -1.7991981499999952 0.6220061799999925
Cu -1.107746050000003 0.09910204999999905 -2.699290519999998
Zr -0.4600486500000045 2.692600249999998 -1.8035919199999952
Cu -2.4085502500000047 -0.726696050000001 -0.4575913199999988
Cu 1.5162544500000052 0.9611015500000093 -2.02459262
Cu 0.3399543499999993 0.11570355000000632 -0.14879151999999607
