16

Cu -2.6377010500000004 -0.8300495000000012 0.5151997000000037
Zr 0.9381999500000013 -1.2647496000000018 -2.6033000999999985
Cu -1.8991985499999977 -1.4760494999999985 -1.9484996999999993
Cu -3.3500995499999995 1.5452498999999982 -0.8896998999999965
Cu 1.6840992499999992 1.0842494999999985 -1.7633991000000009
Cu 3.3500995499999995 0.009450900000000928 -0.329801499999995
Zr -1.2049999499999977 3.203649500000001 -1.5591983999999997
Cu -1.0826015500000032 0.4884510999999989 -2.4784983999999994
Zr -0.22509954999999948 -3.203649500000001 -0.786901499999999
Cu 1.0165004499999988 -0.6487502999999997 2.3350009999999983
Zr -2.6897983500000002 2.2966498999999985 1.3893985999999998
Cu -1.0750980499999976 0.6333503 2.6033000999999985
Zr 2.3359012500000027 2.548850999999999 0.694398900000003
Cu 1.8913020499999966 -2.1948490000000014 0.1432019000000011
Cu -0.039499250000002206 2.642549500000001 1.0655995000000047
Zr -0.17009925000000337 0.3438510999999984 -0.1234989000000013
