14

Zr -2.5663251999999996 -0.919151399999997 -0.4208503000000001
Cu -0.19194500000000048 -0.4420509999999993 -2.4998403000000002
Zr -0.3202152999999992 -2.9692498 -0.40714030000000045
Zr 2.0103244 -1.8509484 -2.3864503000000004
Zr 2.041625 1.8671493000000012 -1.9971003
Zr -1.6278053000000003 1.5705489999999998 -1.9091600999999998
Cu -0.8519555000000008 2.9692498 0.10259010000000002
Cu 1.8658245999999998 -2.212150600000001 0.8406596
Cu -0.04710490000000078 -1.6000481000000022 2.2205396
Zr 0.5644244999999994 1.0005494000000041 2.4998403000000002
Cu -2.2275352 1.2466506000000024 0.9544300999999993
Zr 1.5467251999999991 2.8394508000000016 0.9004101999999992
Cu 2.5663251999999996 -0.033649400000001606 -0.1647201000000007
Cu -0.03982549999999918 0.2653503000000015 -0.3035903000000002
