14

Cu 0.9973010500000008 -1.3410988500000016 -2.147999800000001
Cu -0.9508991500000015 -2.1336021500000015 -1.357199699999999
Cu 0.6137008500000007 -2.9090995500000005 0.08870029999999929
Zr 2.4491004499999995 -1.5708999500000047 1.8072003999999993
Cu 2.7469997500000005 -2.04899975 -0.4488993000000008
Zr -2.7469997500000005 1.2072982499999938 0.10630130000000193
Cu -1.3253002500000015 -1.84989925 1.3942003000000014
Zr -0.15119925000000123 1.4287986499999974 -2.3650999000000006
Cu -1.2327994500000017 0.7431983500000001 2.2605009000000003
Cu 2.5939998499999994 0.39069754999999873 0.06640150000000133
Cu 1.311500549999998 2.9090995500000005 -0.7718992
Cu -0.18650045000000048 2.62369915 1.5338011000000016
Cu 1.8505001499999985 1.132297549999997 2.3650999000000006
Zr 0.15329935000000106 -0.2579994499999998 0.2733011000000012
