15

Cu 0.39810560000000095 -1.99960045 -2.2495351
Cu -1.951694499999995 -2.234800449999999 -0.4502347999999996
Cu 0.3788032999999942 -2.87950035 0.33606479999999994
Cu 1.5218010000000035 0.4484995500000002 -2.6556743999999997
Zr -0.9779014999999944 1.6115998500000002 -2.8691649000000004
Cu -2.750499699999999 -0.2929001499999986 -2.0302347999999997
Cu -0.48379899999999765 2.87950035 -0.053334699999999735
Cu -2.299800800000007 0.6895999500000007 -0.25333450000000024
Cu 1.8325996999999958 2.1125992500000015 -0.9254346
Cu 0.7852059000000011 1.7272004500000007 1.7629656999999996
Cu 2.750499699999999 0.8348998500000002 0.9555650000000009
Cu 2.219402300000006 -1.4667998500000001 1.2966656999999993
Cu -1.5946997999999937 1.88149925 1.9603647999999998
Zr -0.44609449999999384 -0.6025000499999988 2.8691649000000004
Zr 0.01810069999999797 -0.23900034999999864 -0.34243439999999925
