13

Zr -0.6909523000000064 -0.3027649499999998 -2.7313652
Cu -2.486354800000001 -0.26614475000000004 -1.1731348000000006
Zr -0.5827522000000016 -2.6838350500000003 -0.508235
Cu 2.705150599999996 0.9891151500000004 0.7735653000000005
Cu 1.6499443000000014 -1.0843648499999996 0.08676519999999943
Cu 1.3877449000000013 0.8572749500000003 -1.458535200000001
Zr -1.4604530000000011 2.130075450000001 -1.538535200000001
Zr 0.6645469999999989 2.6838350500000003 0.5164651000000005
Cu -2.705150599999996 1.11419485 0.8752650999999991
Zr -1.8832512000000037 -1.6051650499999996 2.109564699999999
Zr 0.6867486000000014 0.038464950000000275 2.6912651
Cu -1.3328513999999956 1.73120495 2.7313652
Cu -0.4370535999999987 0.17461535000000028 0.09426489999999976
