12

Zr 0.78338985 0.8983948000000006 -2.85869035
Zr 0.15824995000000008 2.4723151 -0.10770984999999911
Cu -0.7341210499999998 -1.4975049999999999 -2.1393394499999996
Zr -2.74442015 0.2916949 -0.75261025
Cu -2.22494205 1.1194551000000001 1.8281898500000011
Cu -1.27360805 -2.4723151 0.8427905500000001
Cu 1.80160985 -1.7490751999999996 -1.668979649999999
Cu 1.5007699500000002 1.6079852000000003 1.8812903500000004
Zr 2.61917985 -1.5436050999999993 1.1130904500000014
Zr 2.74442015 0.8715250000000005 -0.7822094499999999
Zr -0.2771300499999998 -0.6612450999999999 2.85869035
Cu 0.12060995000000019 -0.25569510000000006 -0.2661094500000001
