15

Cu 1.1529998999999975 -1.860048250000002 -2.1980476000000024
Zr -1.4546966999999995 -2.723249450000001 -0.7263525999999914
Cu -2.661399899999992 -0.5635471500000016 -2.2076530000000005
Zr -0.6815033000000028 0.6928500500000006 -2.567150099999999
Cu 1.9692000999999948 0.845750749999997 -2.3504524000000018
Zr 3.1529007000000036 0.01585194999999473 0.06014640000000071
Zr 0.9686966000000012 2.723249450000001 -0.5181540999999967
Cu -0.7678985999999952 -1.735448850000001 1.9508477000000042
Cu 1.318901100000005 -2.6882495499999983 0.7382469
Cu 1.4018020999999976 -0.6761493499999993 2.567150099999999
Cu -3.1529007000000036 -0.5694484499999994 0.21864699999999715
Zr -1.6759033000000017 0.8930530499999954 2.280651200000001
Cu -1.7316971000000052 1.883752849999997 -0.5184516999999929
Zr 1.294899000000001 1.8760509499999962 2.5337486000000027
Zr 0.1336974999999967 -0.3308506499999986 0.04085160000000343
