13

Zr 0.20725250000000273 -2.6344499500000005 -0.5148997500000005
Zr -2.3621445000000065 -0.8109502500000012 0.8817000499999983
Cu 2.302154499999993 -1.7071504500000003 0.21370074999999833
Cu -2.5591506999999964 -0.5408506499999994 -2.2479996500000015
Cu -0.2219466999999966 -1.5071515499999997 -3.06059985
Cu 2.2989502 2.6344499500000005 -0.017499450000001637
Cu 0.5692519999999988 0.9698496500000005 -2.7070994500000003
Zr 2.5591506999999964 0.3367490499999981 -1.0896992500000016
Zr -1.5994492000000022 1.9130487500000015 -1.0598998500000016
Zr -0.42494959999999793 -1.6050500499999991 3.06059985
Cu -0.18624879999999422 1.8914499499999984 1.2161002499999993
Zr 2.024848999999996 0.20374975000000006 2.581100049999999
Cu 0.10745239999999256 0.10774895000000129 0.16389994999999846
