14

Zr -1.5672512500000018 -2.0819472999999995 -1.76679895
Zr -0.08505055000000183 0.6637496999999932 -2.6059999499999993
Cu 1.4876498500000004 -1.4943466000000036 -1.8096989499999996
Cu 0.676851249999995 -2.6255492999999994 0.08900164999999838
Zr -1.4377498499999994 0.9433517000000045 2.5170011500000005
Zr -2.203748749999999 -1.9281500999999999 1.381901749999999
Cu -0.09845165000000478 -2.004249500000004 2.6059999499999993
Cu 1.2203503500000004 0.7641525000000051 1.7808999500000002
Zr 2.5693492499999984 -1.6686478000000058 1.6152009500000002
Zr 2.6197490499999994 0.7552490000000027 -0.3157987500000008
Cu -2.6197490499999994 0.390449499999999 0.12340064999999889
Cu -0.6022510500000031 2.3929520000000046 -0.2708997499999999
Cu 1.433752049999999 2.6255492999999994 -1.3094987500000013
Cu 0.010351150000001752 -0.022346500000001157 0.0234002499999999
