12

Cu -1.019048650000002 -2.123954899999994 -2.2951994499999984
Cu -1.075448950000002 -2.197555599999994 0.06250095000000044
Cu 1.2351512500000013 -1.8245544999999979 -1.7902994499999991
Zr 0.25314904999999754 1.0033491999999953 -2.60649965
Zr -2.505849849999997 0.442550599999997 -0.09190084999999826
Cu -0.15944855000000047 2.5173492999999993 -0.5243005499999995
Cu -0.12425035000000406 -0.919151399999997 2.60649965
Zr 1.5316524500000028 -2.5173492999999993 0.784499150000002
Zr 2.505849849999997 0.49015039999999743 -0.881199849999998
Cu 2.318552050000001 0.4971465000000066 2.062800450000001
Zr -1.1580485500000037 1.7655485999999954 2.4026002500000025
Cu 0.009149549999996509 0.1259460000000061 0.4205007500000022
