14

Cu -2.5535011500000024 0.13529965000000033 -2.0639495500000002
Cu -1.5281028499999962 -2.260704050000008 -1.7931480500000028
Cu 0.4864006499999931 -0.08519745000000256 -2.5936508499999995
Cu -2.161602049999999 2.4598999500000005 -0.18505095000000082
Cu -0.8356971500000014 2.1104965500000006 -1.7972488500000061
Cu 1.8567008499999957 2.3209991499999987 -1.6749496500000056
Zr -0.9529991499999966 -2.4598999500000005 1.2517509499999981
Cu 0.7109031499999929 -1.426498450000004 -0.7752494500000005
Zr 2.6966972499999997 0.03240204999999463 0.3113517499999965
Cu 0.6117974499999974 -0.6445998499999988 1.9412498499999948
Cu -2.6966972499999997 -0.5400008500000055 1.3373489499999955
Cu -1.4053001500000022 1.4239959499999983 2.5936508499999995
Zr 0.6732978499999973 2.275001549999992 0.7918510499999947
Cu -0.6675987499999962 0.34529874999999066 -0.22525025000000554
