12

Cu -0.7054996000000013 -2.2763004499999973 -1.3938703000000006
Cu -2.2434998000000004 -1.8728999500000008 0.3844500000000002
Zr -2.582099900000001 0.7498990499999998 0.4753198999999997
Cu 0.061099999999997934 2.0874996500000016 -0.32147020000000026
Zr 2.582099900000001 0.9764003499999951 0.2095899999999995
Zr 0.7936001999999984 -0.19030174999999971 -2.7782302000000003
Cu 1.4346999999999976 -1.7682018500000005 -0.2007203000000004
Cu -1.163900400000001 2.60780145 2.2361694000000005
Cu 0.4629993999999993 -2.60780145 1.7124601000000004
Cu -1.0737000000000005 -0.9860019499999986 2.551789799999999
Zr 1.0439986999999977 0.8015956499999994 2.7782302000000003
Cu -0.10230069999999891 -0.1734027500000046 0.39381980000000016
