14

Cu -1.972450300000002 -0.6809481999999996 -1.7942152
Zr -0.603450800000001 -2.9064502999999995 -0.6994547999999998
Cu -1.7886504000000052 -1.322450700000001 0.8512248999999992
Cu 2.4050521999999965 -2.1127490999999985 -1.509665
Zr 2.871849000000001 -0.690549800000003 0.7103647999999998
Cu -0.7824478000000035 1.5344524000000028 -2.1515651
Zr -2.871849000000001 1.265253099999999 0.23278519999999947
Cu 0.8803519999999985 -0.40194899999999834 -2.5000048
Cu -0.3856507000000029 2.9064502999999995 0.43564509999999945
Cu -1.4549484000000028 1.059850700000002 2.3593655
Cu 0.8059501999999945 -1.8687495999999975 1.5200252999999995
Cu 1.208949999999998 0.4712505 2.5000048
Zr 2.51445 2.371851000000003 -0.4074650000000002
Zr 0.08105089999999748 0.27145189999999886 -0.13499499999999998
