11

Cu -2.6457399 -0.5620010999999998 0.5202998500000025
Zr -0.6188198000000003 -2.3855009000000003 -0.5669994499999991
Zr 1.37684 -2.062001200000001 1.8676014499999969
Cu -1.5208498000000001 -0.5204000999999998 2.5002994500000018
Zr -2.03014 0.014498700000000753 -2.5002994500000018
Cu 1.3097699999999999 -1.1894999000000013 -1.645999950000002
Zr 0.7384600999999997 2.217101099999997 -1.49239925
Zr -0.7051998000000004 2.3855009000000003 1.3941020500000025
Zr 2.6457399 0.8793992999999993 0.4102992500000031
Cu 0.8031900999999997 0.740799899999999 2.3061999500000017
Cu 0.1547101999999998 -0.19480039999999832 0.2677020499999987
