12

Cu -2.1156501999999975 -2.1329498499999993 0.6981238300000001
Zr -0.3385505999999978 -2.659450549999999 -1.788875669999996
Cu 0.29204940000000335 -2.2698478500000014 1.3478201300000023
Cu 2.5457496999999947 -1.2866477500000038 0.16712552999999275
Zr 0.7887535000000057 0.4581489499999982 2.664974370000003
Zr -2.5457496999999947 0.5020484500000002 -1.2040749700000077
Cu -1.7763480999999999 0.23995204999999586 1.1646231299999954
Cu -0.10764699999999294 2.2248496499999995 0.8127249300000017
Cu 0.513149300000002 0.27054974999999715 -2.664974369999996
Zr -0.4581489999999988 2.659450549999999 -1.8505745700000062
Zr 2.1981544 1.5138511499999971 -1.0861779699999943
Cu 0.1452521999999945 -0.45925145 -0.24827967000000228
