14

Cu -2.018703450000011 -1.155051199999999 -0.0695954000000043
Cu 0.22399524999999443 -2.5201502 -1.2817992999999959
Cu -3.1534004499999995 0.944050800000003 0.062103299999996864
Cu -1.0453986500000028 2.5201502 -0.9352950999999976
Zr -0.2544059499999989 -0.5462522000000014 -2.861900299999995
Cu 1.9444999500000009 -0.6090497999999975 -1.6509017999999926
Cu 1.2216987499999945 1.5771493999999997 -1.9776000999999965
Cu 0.9417000500000015 1.8392496999999999 1.4514999000000088
Zr -1.5879020500000038 1.7531481000000007 1.8828047999999953
Cu 1.6963996499999965 0.4545489000000025 2.861900299999995
Cu 1.3540993499999914 -1.9907502999999984 0.517204299999996
Cu -0.0317039500000007 -0.5470494999999964 2.463897699999997
Zr 3.1534004499999995 -0.15075200000000066 0.5706024999999997
Zr 0.16170125000000013 0.28674789999999817 -0.18370060000000166
