17

Zr -1.5380496500000014 0.6373355499999995 -3.019000049999999
Cu -1.8886470499999994 -1.20151495 -1.0244999499999992
Cu 2.659551650000001 -1.4906747500000002 -1.6261997499999996
Cu -0.9605502500000007 2.9028155499999997 -1.6589994499999996
Cu 2.040349950000003 1.1440856499999992 -1.3160000499999995
Cu -0.8684482500000037 -1.8881046499999998 1.0545997500000013
Cu -1.0500468499999975 -1.0274946500000004 3.019000049999999
Zr 1.459550850000003 -1.2469046500000003 2.8830003499999997
Zr 1.384550149999999 -3.04911495 0.12670035000000013
Cu 2.7740497499999996 -0.4897949500000003 0.4562997500000012
Cu -1.473546950000003 2.7722156499999997 1.2111997500000005
Zr -2.7740497499999996 1.0593955499999996 -0.2018994499999991
Zr -2.629747349999999 0.8096950500000002 2.677100150000001
Cu -0.03214825000000232 1.2803952499999998 2.5607995500000023
Zr 2.3428516499999965 1.7812154499999995 1.891300150000001
Cu 0.6591511500000031 3.04911495 0.24929995000000105
Zr 0.0502529499999973 0.23105505000000015 0.2910003500000009
