14

Cu -1.1965981499999998 0.5144538500000024 -2.4239998499999977
Cu 0.7479018499999981 -2.8780479500000027 0.6197013499999962
Zr -2.5849991500000016 1.893253350000002 -0.5634994499999983
Zr 1.9281997499999974 -1.2196464500000062 -0.7254982499999976
Cu -1.0066986500000041 -1.1204490499999977 -0.6051979500000009
Cu -0.4678992500000021 2.712451949999995 -2.659999850000002
Zr 0.2350005499999952 -0.6532478500000067 2.659999850000002
Cu -1.774101250000001 1.3190498499999919 1.6103019499999967
Cu 2.573100949999997 -0.21715164999999814 2.0951995500000002
Cu 2.5849991500000016 1.7820549499999956 0.4573020499999991
Zr 2.2536010500000003 2.000949850000005 -1.916599350000002
Cu -0.15430075000000443 2.8780479500000027 -0.05339805000000197
Cu 0.8032988499999973 2.5150489500000006 2.1823005499999972
Cu 0.27389904999999715 0.7362480499999933 0.013198949999999599
