15

Cu -0.769100200000004 1.3444490500000033 -2.4367494500000024
Cu 0.4836998000000037 -0.25635054999999873 -3.27114965
Zr -2.142902299999996 -0.5678491499999989 -0.9433508499999999
Cu -1.382495900000002 -2.9053507499999984 0.07104965000000085
Zr 0.6474037000000052 -2.2587499500000003 -2.0288496499999997
Cu -2.205699900000006 -1.251149149999998 2.2574492499999987
Cu -0.2546958999999944 2.9053507499999984 0.43335054999999834
Zr -2.7953987 1.895749150000002 0.5158490499999981
Zr 0.1116981999999993 0.8535508499999995 3.01455015
Zr 2.7953987 -0.1557493499999989 -1.2533502500000022
Cu 2.161601999999995 2.5279512500000028 -0.05524925000000103
Cu 2.450099999999999 0.13845155000000098 1.4530496499999987
Cu 0.7942008999999999 -1.7478494499999986 0.8801507500000003
Cu -0.36619950000000046 -1.608349849999998 3.27114965
Cu 0.08379749999999575 0.3578500499999979 0.3326502499999986
