14

Zr -2.88925505 -1.3223495499999984 1.5369768199999996
Cu -1.9714254500000008 0.8782501499999995 2.492306720000002
Zr -0.4273448499999999 -1.7740497499999996 -0.9203929800000026
Zr -0.4614453499999991 -2.6012496499999997 2.1858068200000034
Cu 0.6187548499999993 -0.41665064999999757 2.7013769200000013
Cu 2.5618547499999993 -0.7160491499999999 0.8105269200000009
Cu -1.8993048499999992 2.3831501500000023 1.0236769199999998
Zr 0.6540550499999993 2.6012496499999997 1.688296819999998
Cu 1.4260544499999996 0.45285035000000207 -1.2773733199999953
Cu -2.53776505 0.9355506499999997 -0.38872307999999833
Zr -1.3006453500000008 0.7791499500000008 -2.7013769200000013
Cu -0.15154505000000018 2.356250750000001 -1.1714773200000081
Cu 2.88925505 2.1307506499999995 0.44838722000000075
Cu -0.20154524999999968 0.6406497500000015 0.43934681999999725
