13

Zr -0.02905075000000057 -0.41365044999999867 -2.72425035
Cu -1.5623502500000006 -1.8214492500000006 2.007350350000001
Cu -1.69315045 -1.7003516499999947 -0.8266511500000018
Zr -2.8818502500000003 0.4606514500000003 0.18065014999999995
Cu -1.041350350000001 1.7289506500000016 -1.6192508500000002
Zr -0.0105504500000011 -3.1477508500000013 0.7035499500000011
Cu 2.8818502500000003 0.08155065000000405 0.8730501499999992
Cu 2.59795015 -1.5028495500000005 -1.1797500500000009
Zr -1.3637504500000004 3.1477508500000013 0.810149749999999
Zr 2.418349349999999 2.5279503500000047 -0.8277497500000006
Cu 1.84034925 -1.3809508499999978 2.4889502500000003
Zr 0.4981499499999993 1.1629486500000041 2.72425035
Zr 0.3168497499999985 0.13235095000000285 -0.22905024999999846
