12

Cu -2.2824001499999973 -1.0850544000000077 -1.9437485500000093
Zr -0.7190036500000012 1.079946500000002 -1.3521499499999976
Zr 2.0026950500000034 -1.571352000000008 -2.5921478500000035
Zr -0.3510036499999991 -2.8620510000000046 -1.2594528500000024
Zr 2.826501850000003 -0.12774849999999915 -0.7175522499999971
Zr 1.5611972499999958 2.8620510000000046 0.18634794999999826
Cu -2.826501850000003 -1.3855533999999956 0.28064725000000124
Zr 1.8200016499999982 -2.653650299999999 0.9816513499999928
Cu 2.365198150000001 -0.02344700000000799 1.581947349999993
Zr -0.6564006499999984 -1.52215 2.5921478500000035
Cu -0.2754001499999994 1.3531475000000022 1.1962508499999984
Cu 0.6139011499999931 -0.6336536000000059 0.14094534999999553
