11

Zr 1.1694031499999937 0.1722011500000029 -2.2951011999999977
Cu -1.872802649999997 -0.6550006499999945 -1.680103300000006
Zr -2.636901850000001 -1.7538013499999998 0.8909035000000003
Zr -0.24220275000000413 -2.404298749999999 -1.0956992999999997
Zr 1.3101043500000031 0.5240001500000027 2.2951011999999977
Cu 2.636901850000001 -0.4504985499999954 -0.33379749999999575
Cu 1.3532028500000024 -1.940698649999998 1.9931984000000043
Cu -1.429801949999998 1.8723010500000008 -1.5726967000000016
Zr -1.8770980500000007 1.5197009500000043 1.3076972999999938
Zr 1.985504149999997 2.404298749999999 -0.5206032000000036
Cu -0.19729614999999967 0.30880165000000304 0.08530049999999534
