12

Zr -1.7273482999999992 -2.5582008499999986 0.5334005000000008
Cu -1.8549499999999988 -0.7369995500000002 -1.3899983999999979
Zr 0.6543501999999997 -1.7051010499999961 -1.7941999999999982
Cu 2.352050800000004 0.17900085000000132 -1.011300099999998
Cu 0.7096482000000002 -1.4832000500000007 2.2634001
Zr -2.7500496000000005 1.1515007500000038 0.6978006000000025
Cu 2.7500496000000005 0.9165001500000045 1.0523004000000018
Cu -0.7525481999999961 1.2052993500000042 -2.6545000000000005
Zr 0.9284515000000049 2.5582008499999986 -0.710999499999998
Cu 0.11795040000000157 1.8704986500000018 1.9109010000000008
Zr -1.5496482999999976 -0.3851012499999982 2.6545000000000005
Cu 0.10615160000000046 -0.12260055000000136 0.12400150000000032
