13

Zr 2.1203498500000038 -2.2823496000000016 -0.7986450000000005
Zr -1.2409553500000001 0.7897500999999973 -1.6615449000000027
Zr 0.5062446499999922 2.958449400000001 -1.3661499000000035
Zr -1.767253849999996 -2.958449400000001 1.4377516999999997
Cu -0.5690498500000061 -2.580449100000001 -1.0134507
Cu 2.276050550000001 -1.1049508000000028 1.2387543000000036
Zr -2.276050550000001 -0.028849600000002695 1.8363495000000043
Cu 0.4171485500000003 -2.101349800000003 2.945648200000001
Cu 0.7683448499999983 -1.4424505000000014 -2.945648200000001
Cu -0.7439537499999958 2.0833502 1.1923523000000031
Cu 1.9812507499999938 0.6560506999999998 -1.164344800000002
Zr 1.7910500500000026 1.3533506000000006 1.7981490999999963
Cu 0.06284715000000318 -0.3289499000000031 0.23545069999999413
