13

Zr 1.1636490999999998 -0.24839970000000022 -2.977199549999999
Cu -2.4138504000000003 -2.649299599999999 0.42130084999999884
Cu -2.5784498000000005 -0.8742008000000006 -1.1557998500000002
Zr 0.043550000000000644 -2.519500700000002 -1.6305999499999997
Zr -0.3033500000000009 -2.026800099999999 1.8325996499999997
Cu 2.0914501999999997 -1.5197010000000013 0.09570124999999852
Cu -1.5154500000000004 2.1880989 -2.055999749999999
Cu -1.8255506000000006 1.1450005999999995 1.5471000500000018
Zr 0.2569498999999995 2.649299599999999 0.4603004499999992
Cu 0.9978489000000001 2.1506995999999994 -1.95289995
Cu 2.5784498000000005 0.7819004000000014 1.4155006499999994
Zr 0.4256500999999995 0.5972003999999984 2.977199549999999
Cu -0.327650600000001 0.13500020000000035 -0.38139914999999913
