12

Cu -0.8333511499999986 -0.11793990000000054 -2.5764007499999977
Zr 1.0902480499999996 -2.2008599999999996 -2.3036002499999952
Zr 1.792449949999991 0.9872608000000005 -2.105899749999999
Cu -1.7333526500000005 -1.837149600000001 1.7172012499999951
Zr -1.4516525500000057 0.9276600000000004 2.5764007499999977
Zr -2.3707504500000027 -1.9541797 -1.2514991500000008
Cu -0.09835055000000636 2.2008599999999996 0.05699924999999695
Cu -2.0102539500000063 0.6958609000000004 -0.5970992499999994
Cu 2.3707504500000027 0.5726605000000005 0.10250094999999959
Zr 1.6598511499999944 -1.9271392999999994 0.8073044499999966
Cu 1.2286453499999936 0.47606089999999934 2.4815980499999952
Cu -0.27194964999999627 -0.38183969999999956 0.13860324999999563
