16

Cu -0.9021034999999955 -2.6387500500000023 0.6479997500000003
Cu 0.7224006999999943 -2.7314510500000004 -1.2666997500000008
Cu 1.8151969999999977 -0.7918491500000009 -2.7079992500000003
Zr -1.2397040999999973 -1.4573497500000023 -2.065199849999999
Cu -2.2895012000000037 1.2596493500000001 -1.1577997499999988
Zr -0.3568992999999949 1.5215473499999952 -2.9205999499999997
Cu -2.6758995 -1.0568522500000022 0.08700084999999902
Cu 0.03680049999999824 2.7314510500000004 0.11769964999999871
Cu 1.3992958000000044 -1.8971499500000029 1.1782998499999984
Zr 2.2028999000000056 2.2572498499999973 -1.602400750000001
Cu 2.6758995 -0.3435496500000035 -0.6106996500000008
Cu 1.8652000000000015 1.4311504500000005 1.8319997500000014
Cu -0.08510210000000029 -0.5737514499999996 2.7780008500000015
Cu -2.1249045999999936 0.797349950000001 1.4914007500000004
Zr -0.30520250000000715 1.9932499499999956 2.9205999499999997
Zr 0.07429890000000228 0.06154824999999775 -0.03950024999999968
