11

Cu 0.6406517000000029 -1.8703499000000008 -0.4656496000000008
Zr -0.08134829999999837 0.4915504000000013 -2.3842497
Zr -2.102550500000003 2.1031495000000007 -0.9739503999999979
Cu -0.4377517000000033 -2.3913498000000004 1.6721506000000002
Zr -2.6338501 -1.243648499999999 -1.3100499999999986
Cu -2.2744484000000007 2.3913498000000004 1.6898508000000003
Cu 1.840850900000003 1.5980491999999984 -0.6585492999999989
Cu -2.307948999999997 -0.22035220000000066 2.0116511
Zr 2.6338501 -0.7517509999999987 0.8702498000000016
Zr 0.7255515999999993 1.1916505000000015 2.3842497
Cu -0.2385483000000015 -0.06575010000000248 0.3882513000000021
