14

Cu -1.1272612999999998 -1.9503479500000012 -0.568002749999998
Cu 2.6084286000000003 -0.04874425000000571 -0.9486027499999992
Zr 0.6154686000000003 -0.021446250000003886 -2.5090999499999995
Zr -2.6220283999999996 0.10044855000000297 -1.5974026499999994
Cu -0.9918313999999997 1.9029540499999982 -1.267602949999997
Zr 1.3051887000000004 -2.9695510499999997 -0.5108013500000013
Cu -0.12070149999999957 -1.8968505500000035 1.575300250000005
Cu -2.2037671 -0.24414825000000207 1.5002956500000053
Cu 0.02960860000000043 0.40875254999999555 2.5090999499999995
Cu 2.0599485000000004 -0.620246850000008 1.6711024499999994
Zr -1.0697013999999998 2.9695510499999997 1.5047969500000065
Zr 1.6063987000000002 2.6214522499999973 -0.9293995499999994
Cu 2.6220284 2.7406539500000022 1.4299983499999982
Cu 0.04804860000000044 0.41985315000000156 0.24270055000000212
